19
Iteration:  1862
 C        -0.042666         0.256812         0.601027
 C         1.417435         0.074838         0.114988
 C         2.065562         0.731061        -1.222138
 C         3.315464        -0.135214        -1.213788
 C         2.663683        -1.532507        -1.600183
 C         2.077533        -1.355170        -0.060727
 O         1.568664        -2.534902         0.465585
 C         3.274135        -0.498873         0.337010
 O         2.536141         0.472906         1.076834
 H        -0.217498        -0.228602         1.533418
 H        -0.258373         1.272333         0.807367
 H        -0.741176        -0.281267         0.019287
 H         1.478483         0.735013        -2.094915
 H         2.282800         1.754798        -1.098471
 H         4.187151         0.340804        -1.578982
 H         1.921121        -1.832887        -2.370538
 H         3.460900        -2.365281        -1.564696
 H         0.682860        -2.316714         0.760070
 H         4.218507        -0.744183         0.770486
