19
Iteration:  4495
 C        -0.093333         0.384336         0.400900
 C         1.395013         0.137503         0.099182
 C         2.094262         0.703119        -1.197596
 C         3.408693        -0.131861        -1.158993
 C         2.897950        -1.538721        -1.546598
 C         2.037622        -1.404526        -0.092307
 O         1.600451        -2.566730         0.547215
 C         3.187255        -0.483069         0.443145
 O         2.303286         0.429583         1.107264
 H        -0.312564         0.580572         1.439721
 H        -0.163767         1.424308        -0.039060
 H        -0.802630        -0.241744        -0.085008
 H         1.416252         0.530281        -2.094875
 H         2.260105         1.852863        -1.022484
 H         4.360603         0.282908        -1.500770
 H         2.525839        -1.646014        -2.550652
 H         3.544392        -2.446765        -1.402294
 H         1.435824        -3.310698        -0.129691
 H         4.079667        -0.998244         0.890130
