19
Iteration:   759
 C        -0.007584         0.166516         0.368445
 C         1.478648         0.048009         0.104312
 C         1.984525         0.760812        -1.190258
 C         3.314291        -0.068041        -1.219829
 C         2.839752        -1.509073        -1.539338
 C         2.055800        -1.389310        -0.159343
 O         1.509820        -2.419952         0.599690
 C         3.212064        -0.486007         0.391383
 O         2.415361         0.430031         1.154479
 H        -0.454739        -0.461170         1.159894
 H        -0.452117         1.214273         0.444699
 H        -0.476018        -0.121113        -0.707649
 H         1.365334         0.413098        -2.050201
 H         2.108837         1.895630        -1.096531
 H         4.223871         0.391110        -1.579311
 H         2.384403        -1.750777        -2.530575
 H         3.541588        -2.332071        -1.398551
 H         2.317922        -2.878805         1.046870
 H         4.039651        -0.965253         0.926163
