19
Iteration:  4677charge 0 multiplicity 1
 C        -0.014018         0.384603         0.386870
 C         1.361372         0.096263        -0.059913
 C         2.109960         0.839523        -1.199608
 C         3.384146        -0.044936        -1.146957
 C         2.705336        -1.625278        -1.492412
 C         2.167385        -1.475320        -0.151964
 O         1.579091        -2.455389         0.588334
 C         3.240643        -0.544705         0.483935
 O         2.292599         0.313228         1.158033
 H        -0.444619        -0.310736         1.103646
 H         0.136062         1.402465         0.849837
 H        -0.651770         0.510963        -0.546974
 H         1.619593         0.730568        -2.234032
 H         2.390906         1.960696        -1.157462
 H         4.238336         0.380900        -1.603483
 H         1.998219        -1.698696        -2.422311
 H         3.614569        -2.232918        -1.591230
 H         1.507400        -3.219795         0.062638
 H         4.117683        -0.979886         1.108465
