19
Iteration:  1823
 C         0.059826         0.327067         0.591857
 C         1.395216         0.007606         0.005635
 C         2.020099         0.806590        -1.222600
 C         3.214612        -0.091799        -1.234140
 C         2.714849        -1.471444        -1.556071
 C         2.122837        -1.416773        -0.178764
 O         1.587061        -2.457898         0.646848
 C         3.270008        -0.569946         0.324448
 O         2.450744         0.366771         1.103037
 H         0.026760        -0.378747         1.516396
 H         0.086069         1.441531         0.801938
 H        -0.868909         0.155785        -0.134412
 H         1.460764         0.517383        -2.208785
 H         2.306831         1.848187        -0.860443
 H         4.243883         0.282965        -1.541933
 H         1.939925        -1.577203        -2.339020
 H         3.376353        -2.293230        -1.460303
 H         0.906806        -2.856732         0.067968
 H         4.286397        -0.943533         0.739394
