19
Iteration:   533charge 0 multiplicity 1
 C        -0.130390         0.136751         0.391119
 C         1.381114         0.093554        -0.004812
 C         2.055835         0.832821        -1.225808
 C         3.331628        -0.081282        -1.190084
 C         2.759892        -1.522889        -1.420929
 C         2.042895        -1.379053        -0.102767
 O         1.592569        -2.527062         0.510765
 C         3.287706        -0.484020         0.438110
 O         2.457392         0.453711         1.067556
 H        -0.243678        -0.467347         1.310701
 H        -0.272807         1.183884         0.686994
 H        -0.793201         0.033739        -0.456029
 H         1.403267         0.914764        -2.085142
 H         1.988731         1.819068        -0.948308
 H         4.169631         0.213246        -1.675317
 H         2.294709        -1.755674        -2.358822
 H         3.535488        -2.349524        -1.269709
 H         2.107474        -2.782358         1.304397
 H         4.201752        -0.950158         0.954717
