19
Iteration:  2230
 C        -0.038527         0.183292         0.496168
 C         1.419075         0.115463        -0.031427
 C         2.109224         0.797925        -1.188971
 C         3.396275        -0.058760        -1.249466
 C         2.673902        -1.518192        -1.505605
 C         2.058499        -1.312873        -0.115451
 O         1.586892        -2.470985         0.698699
 C         3.178078        -0.529484         0.391297
 O         2.389777         0.362791         1.061246
 H        -0.094254        -0.336519         1.419870
 H        -0.274134         1.245932         0.767687
 H        -0.659629        -0.064539        -0.317270
 H         1.640778         0.705359        -2.168908
 H         2.419309         1.896905        -1.005880
 H         4.424780         0.103196        -1.854045
 H         2.129779        -1.800192        -2.501780
 H         3.414482        -2.341119        -1.586439
 H         1.596704        -3.168719         0.021974
 H         4.148493        -0.798622         0.857275
