19
Iteration:   121
 C        -0.093687         0.163240         0.275161
 C         1.357701         0.015541         0.056062
 C         2.190012         0.862732        -1.178642
 C         3.303674        -0.095658        -1.171384
 C         2.725245        -1.486034        -1.453506
 C         2.135010        -1.402260        -0.042709
 O         1.660529        -2.632877         0.639677
 C         3.313524        -0.427672         0.430332
 O         2.280891         0.510696         1.018802
 H        -0.455133        -0.588009         0.999957
 H        -0.323749         1.133390         0.700584
 H        -0.665629        -0.113515        -0.557160
 H         1.718855         0.958804        -2.068982
 H         2.394555         1.834954        -0.777020
 H         4.216072         0.318581        -1.683093
 H         2.188900        -1.595757        -2.422592
 H         3.554124        -2.187349        -1.476109
 H         0.873218        -2.976972         0.086284
 H         4.196494        -0.554623         1.025948
