19
Iteration:  4430
 C        -0.100515         0.211950         0.236959
 C         1.384869         0.062869         0.042605
 C         2.017751         0.746137        -1.135104
 C         3.342657        -0.142120        -1.097740
 C         2.811889        -1.522772        -1.477350
 C         2.137387        -1.324935        -0.104482
 O         1.579125        -2.439913         0.556463
 C         3.270421        -0.554800         0.435676
 O         2.439495         0.405333         1.118040
 H        -0.397043        -0.532236         0.955887
 H        -0.297743         1.249382         0.545746
 H        -0.658046         0.184556        -0.678674
 H         1.436982         0.597712        -2.103868
 H         2.433558         1.806601        -0.950787
 H         4.131130         0.388992        -1.607517
 H         2.269092        -1.674919        -2.396974
 H         3.505138        -2.412148        -1.461264
 H         0.649928        -2.212928         0.498793
 H         4.197915        -0.726183         0.947899
