19
Iteration:   577
 C        -0.064116         0.200124         0.341202
 C         1.403429        -0.064851        -0.020106
 C         1.978212         0.786082        -1.146614
 C         3.335420        -0.054660        -1.225866
 C         2.776132        -1.465126        -1.533752
 C         2.178281        -1.390046        -0.107290
 O         1.495244        -2.415365         0.638096
 C         3.313436        -0.434650         0.410889
 O         2.390813         0.325879         1.127303
 H        -0.299677        -0.492232         1.202921
 H        -0.253310         1.288129         0.498936
 H        -0.617676        -0.068366        -0.615088
 H         1.500558         0.892660        -2.189970
 H         2.151924         1.822851        -1.043295
 H         4.182805         0.281784        -1.704493
 H         2.097947        -1.654508        -2.375612
 H         3.603610        -2.265885        -1.620728
 H         2.003878        -2.756318         1.395950
 H         4.333776        -0.705850         0.927711
