19
Iteration:  3595charge 0 multiplicity 1
 C        -0.065130         0.231391         0.398358
 C         1.407425         0.150992        -0.000769
 C         2.153069         0.837173        -1.263092
 C         3.335953        -0.121618        -1.138383
 C         2.880478        -1.525298        -1.482037
 C         2.131769        -1.459016        -0.112551
 O         1.531885        -2.519433         0.621947
 C         3.206024        -0.464662         0.463864
 O         2.317858         0.414921         1.038680
 H        -0.312009        -0.366814         1.280383
 H        -0.400553         1.186386         0.573122
 H        -0.662773        -0.235574        -0.316311
 H         1.418718         0.661976        -2.121044
 H         2.141964         1.850258        -0.888227
 H         4.368819         0.293249        -1.323371
 H         2.281332        -1.677435        -2.433550
 H         3.631264        -2.301816        -1.375953
 H         1.188118        -3.057954        -0.085198
 H         4.090667        -0.630511         1.078777
