19
Iteration:  4608charge 0 multiplicity 1
 C        -0.046120         0.335400         0.383380
 C         1.444604         0.100296         0.030704
 C         2.102034         0.749376        -1.249751
 C         3.352414        -0.087941        -1.137909
 C         2.833128        -1.541450        -1.519557
 C         2.160753        -1.442654        -0.123388
 O         1.491126        -2.572293         0.506025
 C         3.316277        -0.441411         0.405487
 O         2.296942         0.348014         1.200087
 H        -0.680456        -0.486840         0.762363
 H        -0.158099         1.088741         1.139042
 H        -0.572736         0.764093        -0.501773
 H         1.560557         0.651948        -2.269493
 H         2.243872         1.948848        -1.111863
 H         4.235970         0.294080        -1.712126
 H         2.153277        -1.649072        -2.398453
 H         3.599171        -2.392255        -1.393867
 H         0.786689        -2.232485         1.121094
 H         4.203771        -0.634120         0.942392
