19
Iteration:  3380
 C        -0.053236         0.369573         0.408171
 C         1.403194         0.068139        -0.044731
 C         2.045025         0.763906        -1.228410
 C         3.351727        -0.057340        -1.154722
 C         2.829827        -1.474949        -1.469702
 C         2.156778        -1.447354        -0.120340
 O         1.636424        -2.611260         0.561780
 C         3.227946        -0.517965         0.456748
 O         2.325435         0.396650         1.080619
 H        -0.417525        -0.328677         1.261770
 H        -0.055988         1.415283         0.704738
 H        -0.778962         0.066747        -0.302997
 H         1.464497         0.737514        -2.143564
 H         2.108457         1.785122        -0.927905
 H         4.255154         0.307932        -1.754279
 H         2.285276        -1.675336        -2.422021
 H         3.590072        -2.245674        -1.565544
 H         0.660520        -2.440658         0.837518
 H         3.906880        -0.808830         1.209224
