19
Iteration:  1236
 C         0.039939         0.197687         0.441321
 C         1.472933        -0.003606         0.119292
 C         2.017915         0.766249        -1.187034
 C         3.211877        -0.072656        -1.299789
 C         2.710333        -1.534688        -1.526628
 C         2.143682        -1.420813        -0.068034
 O         1.513645        -2.454136         0.575983
 C         3.310466        -0.459464         0.371096
 O         2.482244         0.427752         1.117740
 H        -0.290005        -0.532141         1.156899
 H        -0.079039         1.244192         0.677567
 H        -0.627983         0.087664        -0.351401
 H         1.359000         0.640130        -2.082264
 H         2.386465         1.830327        -1.019150
 H         4.033854         0.286288        -1.856168
 H         1.991919        -1.589067        -2.354720
 H         3.563899        -2.337774        -1.443024
 H         0.598010        -2.280065         0.311763
 H         4.186952        -0.767685         1.004517
