19
Iteration:  3576
 C        -0.080011         0.289656         0.343122
 C         1.341120         0.031105        -0.033234
 C         2.035775         0.755138        -1.170093
 C         3.341344        -0.076466        -1.077221
 C         2.836957        -1.573589        -1.439219
 C         2.127344        -1.414125        -0.102146
 O         1.586303        -2.489676         0.524432
 C         3.285721        -0.471518         0.434341
 O         2.343777         0.505492         1.090573
 H        -0.359059        -0.399397         1.220653
 H        -0.143675         1.325645         0.694687
 H        -0.771268         0.142779        -0.473262
 H         1.699156         0.395340        -2.180892
 H         2.432351         1.722508        -0.827259
 H         4.247292         0.202617        -1.634544
 H         2.148687        -1.707957        -2.307052
 H         3.593624        -2.300260        -1.393646
 H         1.490382        -3.284810        -0.077330
 H         4.055349        -0.988674         1.017104
