19
Iteration:  4671charge 0 multiplicity 1
 C        -0.081709         0.439713         0.402305
 C         1.377797         0.150029        -0.053153
 C         2.128507         0.807173        -1.225455
 C         3.372592        -0.080341        -1.138133
 C         2.744726        -1.547016        -1.486887
 C         2.172785        -1.499158        -0.169264
 O         1.608019        -2.499895         0.608324
 C         3.226386        -0.571584         0.470821
 O         2.288990         0.309216         1.131615
 H        -0.544527        -0.336090         1.068009
 H         0.188616         1.359582         0.951952
 H        -0.619442         0.599367        -0.486534
 H         1.608446         0.589887        -2.118233
 H         2.329109         1.830718        -1.063940
 H         4.272194         0.388039        -1.687867
 H         1.958307        -1.639493        -2.255513
 H         3.556401        -2.287693        -1.485167
 H         1.486402        -3.211015        -0.111641
 H         4.052715        -0.797831         1.095054
