19
Iteration:   625
 C        -0.105252         0.171098         0.495402
 C         1.421143         0.052249        -0.002749
 C         2.088221         0.684847        -1.254115
 C         3.357301        -0.094494        -1.124258
 C         2.793662        -1.477531        -1.491354
 C         2.154211        -1.362610        -0.104679
 O         1.516342        -2.488693         0.527628
 C         3.231706        -0.464627         0.422987
 O         2.352290         0.471880         1.054951
 H        -0.114329        -0.410703         1.371849
 H        -0.371233         1.213175         0.708119
 H        -0.801032        -0.152322        -0.203563
 H         1.627514         0.670245        -2.197572
 H         2.162531         1.770960        -1.159688
 H         4.307370         0.297701        -1.646881
 H         2.146759        -1.394669        -2.398684
 H         3.458827        -2.272746        -1.632519
 H         2.221631        -3.053849         0.887941
 H         4.101712        -0.669475         0.994785
