19
Iteration:  2285charge 0 multiplicity 1
 C        -0.024095         0.244732         0.395335
 C         1.439057         0.097958         0.125619
 C         2.010768         0.678108        -1.210872
 C         3.285440        -0.050298        -1.218825
 C         2.774121        -1.531731        -1.463074
 C         1.998954        -1.335718        -0.114798
 O         1.595419        -2.510122         0.542596
 C         3.316778        -0.516930         0.353773
 O         2.459875         0.383974         1.142232
 H        -0.179353        -0.147343         1.370112
 H        -0.221432         1.340880         0.304718
 H        -0.614220        -0.258402        -0.303618
 H         1.370357         0.625445        -2.067929
 H         2.047699         1.812770        -1.286288
 H         4.264694         0.283490        -1.808879
 H         2.113659        -1.513349        -2.398728
 H         3.617039        -2.196984        -1.424484
 H         0.704919        -2.426073         0.830826
 H         4.341293        -0.706423         0.767676
