19
Iteration:  2261charge 0 multiplicity 1
 C        -0.045586         0.234804         0.440044
 C         1.369056         0.037753         0.042543
 C         2.017891         0.736102        -1.118274
 C         3.313382        -0.064720        -1.170310
 C         2.725903        -1.550258        -1.557921
 C         2.210165        -1.431378        -0.158570
 O         1.549376        -2.435184         0.642156
 C         3.268941        -0.514209         0.406741
 O         2.483847         0.424897         1.064254
 H        -0.382025        -0.104684         1.452700
 H        -0.147463         1.311920         0.191998
 H        -0.626923        -0.239115        -0.312260
 H         1.424447         0.708848        -2.029714
 H         2.045574         1.837792        -1.066819
 H         4.277407         0.307154        -1.639645
 H         1.934422        -1.581009        -2.347206
 H         3.515573        -2.302171        -1.619061
 H         0.839724        -2.647064        -0.016639
 H         4.214455        -0.671998         0.823785
