19
Iteration:  3753
 C        -0.053478         0.228807         0.301618
 C         1.373217        -0.081038         0.053669
 C         2.079840         0.716057        -1.257719
 C         3.403882        -0.081164        -1.151591
 C         2.880504        -1.494260        -1.432398
 C         2.131530        -1.381980        -0.072984
 O         1.403472        -2.414266         0.574941
 C         3.274991        -0.397413         0.393111
 O         2.323401         0.431808         1.157504
 H        -0.252744        -0.590532         0.924581
 H        -0.321961         1.167678         0.819614
 H        -0.603851         0.003920        -0.647680
 H         1.506216         0.720484        -2.249438
 H         2.098828         1.897346        -1.146976
 H         4.325098         0.304256        -1.499558
 H         2.584114        -1.677826        -2.434659
 H         3.743126        -2.215419        -1.213671
 H         1.895824        -3.287657         0.367826
 H         4.233900        -0.870197         0.706153
