19
Iteration:   160charge 0 multiplicity 1
 C        -0.057252         0.191065         0.328184
 C         1.436435         0.050371         0.045987
 C         2.022914         0.686838        -1.209198
 C         3.353037        -0.064301        -1.122882
 C         2.804880        -1.454616        -1.514027
 C         2.077473        -1.337227        -0.125099
 O         1.588274        -2.430357         0.635657
 C         3.289270        -0.472783         0.406281
 O         2.301609         0.385258         1.128797
 H        -0.427358        -0.555125         1.049620
 H        -0.327260         1.198334         0.664497
 H        -0.603983         0.113957        -0.696918
 H         1.557903         0.413598        -2.248614
 H         2.103690         1.804731        -1.154478
 H         4.283471         0.258882        -1.560637
 H         2.309217        -1.718417        -2.438460
 H         3.712040        -2.137376        -1.369027
 H         1.823637        -3.217692         0.121334
 H         4.140693        -0.790997         1.042250
