19
Iteration:  2065charge 0 multiplicity 1
 C        -0.046292         0.292858         0.334484
 C         1.398241         0.056397         0.132968
 C         2.007997         0.848317        -1.174773
 C         3.252052        -0.092372        -1.232404
 C         2.682540        -1.538257        -1.503522
 C         2.091911        -1.357290        -0.098421
 O         1.610236        -2.517428         0.575894
 C         3.337245        -0.559131         0.345852
 O         2.533321         0.373738         1.134981
 H        -0.307034        -0.170174         1.368898
 H        -0.527294         1.267199         0.334797
 H        -0.436312        -0.269638        -0.454913
 H         1.416881         0.575572        -2.116153
 H         2.026741         1.987691        -1.074831
 H         4.225612         0.136199        -1.584688
 H         2.017498        -1.647429        -2.424469
 H         3.375445        -2.361862        -1.593173
 H         0.924168        -2.294201         1.168722
 H         4.249378        -0.898286         0.696181
