19
Iteration:  2954
 C        -0.049426         0.302725         0.316731
 C         1.387527         0.017913         0.083454
 C         2.017837         0.698486        -1.205737
 C         3.359271        -0.084630        -1.176594
 C         2.873798        -1.461154        -1.510206
 C         2.078571        -1.374521        -0.090665
 O         1.479176        -2.462179         0.624821
 C         3.329608        -0.431101         0.343110
 O         2.373558         0.312301         1.139373
 H        -0.507920        -0.483332         0.941993
 H        -0.082173         1.285858         0.537616
 H        -0.633230         0.153418        -0.592954
 H         1.426822         0.359722        -2.068640
 H         2.031633         1.775174        -1.139662
 H         4.064853         0.436254        -1.774816
 H         2.198547        -1.476788        -2.304757
 H         3.660079        -2.135197        -1.925410
 H         1.967152        -2.928670         1.393766
 H         4.196718        -0.768049         0.932249
