19
Iteration:  3854charge 0 multiplicity 1
 C        -0.080563         0.302683         0.284576
 C         1.367940         0.053164         0.028480
 C         2.000171         0.664706        -1.179904
 C         3.421135        -0.077969        -1.110316
 C         2.887487        -1.484591        -1.510541
 C         2.111303        -1.362680        -0.108257
 O         1.469213        -2.487584         0.536074
 C         3.331596        -0.455222         0.412753
 O         2.309912         0.363661         1.123875
 H        -0.431556        -0.095006         1.265166
 H        -0.206384         1.391422         0.216864
 H        -0.677222        -0.268032        -0.434830
 H         1.500882         0.486479        -2.167698
 H         1.972000         1.813603        -0.915672
 H         4.412996         0.162313        -1.469465
 H         2.490706        -1.619576        -2.497974
 H         3.694743        -2.220617        -1.275882
 H         2.085987        -2.822448         1.153675
 H         4.149683        -0.692548         1.104322
