19
Iteration:  1597charge 0 multiplicity 1
 C         0.112463         0.352380         0.538288
 C         1.441298         0.039488         0.044629
 C         1.965699         0.769299        -1.141495
 C         3.247885        -0.059877        -1.304871
 C         2.698393        -1.483815        -1.613259
 C         2.173945        -1.489582        -0.136206
 O         1.458303        -2.417319         0.615715
 C         3.237053        -0.562629         0.340416
 O         2.450411         0.309042         1.088094
 H        -0.008215        -0.410197         1.396427
 H         0.082991         1.324215         1.148872
 H        -0.586218         0.225829        -0.252212
 H         1.582991         0.814456        -2.140581
 H         2.103720         1.899812        -1.082787
 H         4.090727         0.406905        -1.861554
 H         2.017069        -1.689340        -2.491428
 H         3.633126        -2.174047        -1.617620
 H         1.747855        -2.737006         1.469077
 H         4.205130        -0.881759         0.778095
