19
Iteration:  2971charge 0 multiplicity 1
 C        -0.036670         0.204300         0.289170
 C         1.419789         0.003624         0.022631
 C         2.007498         0.696834        -1.176090
 C         3.306900        -0.044837        -1.195075
 C         2.777298        -1.511063        -1.545699
 C         2.206903        -1.401888        -0.110196
 O         1.455890        -2.381174         0.598744
 C         3.284739        -0.510582         0.441195
 O         2.416605         0.408519         1.163618
 H        -0.579420        -0.517825         0.933699
 H        -0.236802         1.235493         0.801885
 H        -0.575545         0.151548        -0.721916
 H         1.354010         0.692991        -2.084704
 H         2.049280         1.812598        -1.098831
 H         4.308962         0.276441        -1.553763
 H         2.085516        -1.534677        -2.479286
 H         3.518910        -2.247851        -1.321785
 H         2.157857        -2.922317         1.044265
 H         4.292205        -0.784586         0.915942
