19
Iteration:  4245
 C         0.030479         0.075401         0.233305
 C         1.459205         0.021224         0.009181
 C         2.070282         0.783298        -1.092884
 C         3.409241        -0.111124        -1.163967
 C         2.825233        -1.515385        -1.480586
 C         2.106672        -1.331847        -0.121335
 O         1.347876        -2.307956         0.587039
 C         3.292638        -0.446918         0.414991
 O         2.307300         0.366621         1.145520
 H        -0.092346        -0.253021         1.270611
 H        -0.364315         1.038920        -0.180332
 H        -0.525991        -0.733576        -0.327454
 H         1.720823         0.690739        -2.083237
 H         2.080099         1.859963        -0.851904
 H         4.359680         0.140576        -1.583820
 H         2.146586        -1.450339        -2.295497
 H         3.668604        -2.267266        -1.628968
 H         1.943435        -3.062258         0.883962
 H         4.179553        -0.754988         0.838104
