19
Iteration:  3055
 C        -0.057399         0.273420         0.336911
 C         1.390533         0.036694         0.099836
 C         1.991491         0.713370        -1.235034
 C         3.296621        -0.033307        -1.171091
 C         2.894510        -1.527568        -1.437480
 C         2.128539        -1.374782        -0.127308
 O         1.531230        -2.517360         0.565675
 C         3.243912        -0.477383         0.391719
 O         2.428443         0.410974         1.131622
 H        -0.219315        -0.076145         1.415541
 H        -0.266643         1.409134         0.432836
 H        -0.643547        -0.172439        -0.445301
 H         1.530110         0.342252        -2.138529
 H         2.132216         1.792447        -0.931318
 H         4.230115         0.224142        -1.742406
 H         2.535849        -1.545028        -2.472839
 H         3.823267        -2.232530        -1.293123
 H         0.719662        -2.824732         0.118797
 H         4.081881        -0.706607         0.956295
