19
Iteration:   276charge 0 multiplicity 1
 C        -0.071209         0.213918         0.329817
 C         1.359723        -0.056275         0.049256
 C         2.054011         0.818118        -1.175724
 C         3.256554        -0.072272        -1.237943
 C         2.867563        -1.486785        -1.457771
 C         2.129158        -1.422699        -0.161053
 O         1.634431        -2.450051         0.655519
 C         3.295531        -0.382777         0.342306
 O         2.333672         0.265382         1.143976
 H        -0.357177        -0.105599         1.366900
 H         0.007262         1.347838         0.326001
 H        -0.698840        -0.054965        -0.490132
 H         1.420289         0.802667        -1.995671
 H         2.076323         1.824460        -0.833535
 H         4.368433         0.248630        -1.592823
 H         2.194356        -1.677453        -2.413854
 H         3.734881        -2.115979        -1.540140
 H         0.686277        -2.285476         0.680832
 H         4.320772        -0.540355         0.779958
