19
Iteration:  1184
 C        -0.017116         0.290893         0.498005
 C         1.399231         0.087257        -0.018516
 C         2.048442         0.825100        -1.196785
 C         3.339687        -0.091892        -1.236693
 C         2.746873        -1.552059        -1.530101
 C         2.073445        -1.411719        -0.133984
 O         1.567537        -2.524904         0.599321
 C         3.254962        -0.539395         0.327900
 O         2.396369         0.432502         1.103230
 H        -0.194028        -0.514570         1.313843
 H        -0.341129         1.340304         0.834529
 H        -0.788284         0.004023        -0.234107
 H         1.354025         0.791680        -1.979960
 H         2.287678         1.835974        -0.838527
 H         4.310378         0.143246        -1.634490
 H         2.098469        -1.672562        -2.479463
 H         3.374126        -2.424053        -1.736542
 H         2.091584        -2.517324         1.458788
 H         4.172226        -0.971277         0.872802
