19
Iteration:  2381
 C        -0.080723         0.167563         0.348041
 C         1.477702         0.047034         0.067125
 C         1.983308         0.736252        -1.178157
 C         3.342508        -0.085488        -1.178090
 C         2.782323        -1.538040        -1.478579
 C         2.110685        -1.405604        -0.068340
 O         1.515529        -2.464090         0.639821
 C         3.359798        -0.505660         0.310150
 O         2.430888         0.481047         1.129470
 H        -0.702505        -0.649755         0.925612
 H        -0.195493         1.229090         0.910026
 H        -0.562403         0.322237        -0.629125
 H         1.428448         0.816662        -2.145903
 H         2.065495         1.859801        -0.872572
 H         4.190751         0.313287        -1.953920
 H         2.064740        -1.591826        -2.370458
 H         3.562786        -2.291683        -1.293728
 H         0.871186        -2.778878        -0.026945
 H         4.369640        -0.659984         0.636036
