19
Iteration:   245charge 0 multiplicity 1
 C        -0.084861         0.152236         0.327469
 C         1.414295         0.120162         0.084585
 C         1.985089         0.777257        -1.151072
 C         3.342869        -0.100569        -1.109587
 C         2.770230        -1.502870        -1.488739
 C         2.104283        -1.384924        -0.117182
 O         1.700687        -2.539956         0.517636
 C         3.245191        -0.528357         0.457689
 O         2.427804         0.479758         1.029320
 H        -0.481496        -0.347230         1.226999
 H        -0.506797         1.178151         0.365822
 H        -0.599293        -0.200746        -0.590949
 H         1.348079         0.393345        -2.015986
 H         2.002220         1.862475        -1.121200
 H         4.521549         0.269531        -1.349570
 H         1.938088        -1.304229        -2.234270
 H         3.430012        -2.350955        -1.713372
 H         0.818580        -2.244125         0.884746
 H         4.096969        -0.855245         1.099033
