19
Iteration:   778charge 0 multiplicity 1
 C        -0.064916         0.230195         0.382265
 C         1.370808         0.032483        -0.006432
 C         2.019023         0.750221        -1.246678
 C         3.313190        -0.070310        -1.144509
 C         2.848221        -1.461319        -1.499185
 C         2.176092        -1.399479        -0.102793
 O         1.480517        -2.407843         0.598760
 C         3.303853        -0.527012         0.401342
 O         2.369071         0.353564         1.078110
 H        -0.086373        -0.389457         1.280212
 H        -0.247032         1.246303         0.830110
 H        -0.739908        -0.202624        -0.250733
 H         1.411547         0.510057        -2.162592
 H         2.115420         1.827750        -1.010032
 H         4.192854         0.395156        -1.706915
 H         2.104951        -1.581598        -2.381969
 H         3.701973        -2.116004        -1.569049
 H         2.115911        -2.978348         1.134856
 H         4.171458        -0.664518         0.936660
