19
Iteration:  1209
 C        -0.016687         0.218345         0.488158
 C         1.436160         0.008604         0.059410
 C         2.047000         0.788322        -1.230029
 C         3.278457        -0.083456        -1.159219
 C         2.669529        -1.485164        -1.538796
 C         2.087983        -1.401557        -0.137180
 O         1.579997        -2.427555         0.600797
 C         3.345629        -0.529739         0.342479
 O         2.450825         0.365790         1.055646
 H        -0.307344        -0.594502         1.203848
 H        -0.272800         1.236105         0.857928
 H        -0.804244         0.018469        -0.364111
 H         1.371932         0.574973        -2.101019
 H         2.273759         1.821063        -1.053290
 H         4.272999         0.146856        -1.668268
 H         2.165595        -1.506498        -2.540819
 H         3.392276        -2.258310        -1.520679
 H         0.951757        -2.004052         1.202020
 H         4.228559        -0.798800         0.922839
