19
Iteration:  1268charge 0 multiplicity 1
 C         0.008271         0.263643         0.521531
 C         1.395969         0.068598         0.062572
 C         2.069617         0.777590        -1.181698
 C         3.298280        -0.096353        -1.167332
 C         2.711385        -1.549580        -1.523402
 C         2.052416        -1.406292        -0.134326
 O         1.604798        -2.474102         0.615532
 C         3.231601        -0.518958         0.333070
 O         2.474534         0.449432         1.027385
 H        -0.151104        -0.114438         1.528265
 H        -0.199906         1.295863         0.820225
 H        -0.708457        -0.149345        -0.207255
 H         1.410827         0.713849        -2.128441
 H         2.198379         1.923153        -1.158647
 H         4.169398         0.359193        -1.555219
 H         2.161286        -1.521144        -2.486506
 H         3.443760        -2.506150        -1.461844
 H         1.203460        -3.016034        -0.077874
 H         3.934458        -1.216012         0.860518
