19
Iteration:  3530
 C        -0.118631         0.314066         0.306166
 C         1.381964         0.039782        -0.015912
 C         2.004568         0.769022        -1.176397
 C         3.390186        -0.107340        -1.139078
 C         2.844563        -1.562195        -1.510493
 C         2.189688        -1.398458        -0.056016
 O         1.497497        -2.466497         0.565627
 C         3.208475        -0.486336         0.440398
 O         2.370831         0.377568         1.097600
 H        -0.400978        -0.439747         1.059969
 H        -0.070425         1.211055         0.828562
 H        -0.752740         0.417780        -0.531278
 H         1.420685         0.582829        -2.105521
 H         2.292343         1.726923        -0.859085
 H         4.341945         0.406699        -1.478095
 H         2.309118        -1.555929        -2.480968
 H         3.706679        -2.091828        -1.589066
 H         2.199796        -3.164331         0.849535
 H         4.176922        -0.660737         0.852564
