19
Iteration:   658
 C        -0.029879         0.238057         0.374254
 C         1.395801         0.039456         0.067017
 C         1.940273         0.688094        -1.177562
 C         3.283011        -0.025556        -1.202263
 C         2.938352        -1.582159        -1.474914
 C         2.134641        -1.419512        -0.090058
 O         1.431340        -2.468525         0.540320
 C         3.291039        -0.363480         0.414741
 O         2.418778         0.422551         1.100237
 H        -0.231944        -0.363011         1.218995
 H        -0.232804         1.281064         0.734274
 H        -0.619614        -0.183597        -0.367242
 H         1.398598         0.529151        -2.133986
 H         2.163370         1.720452        -0.850657
 H         4.239033         0.364208        -1.764269
 H         2.345177        -1.579145        -2.446796
 H         3.722476        -2.273182        -1.407571
 H         1.847664        -3.275831         0.346609
 H         4.255742        -0.544993         0.831816
