19
Iteration:  1537
 C         0.068262         0.205743         0.513613
 C         1.469022         0.125001         0.089261
 C         1.982412         0.887804        -1.187111
 C         3.260100        -0.173095        -1.284470
 C         2.662973        -1.527425        -1.517127
 C         2.190174        -1.462724        -0.080825
 O         1.404070        -2.453379         0.598964
 C         3.305060        -0.503529         0.348632
 O         2.515069         0.449198         1.105508
 H        -0.097212        -0.506307         1.282109
 H        -0.105885         1.190216         0.894328
 H        -0.742919        -0.052116        -0.231004
 H         1.423789         0.673797        -2.124677
 H         2.262005         1.904990        -0.996894
 H         4.178348         0.071267        -1.945386
 H         2.042146        -1.514002        -2.562239
 H         3.319413        -2.407316        -1.651365
 H         1.406848        -3.306216         0.075830
 H         4.287110        -0.767039         0.754363
