19
Iteration:  4501charge 0 multiplicity 1
 C        -0.066621         0.383788         0.364426
 C         1.422552         0.136211         0.073046
 C         2.096375         0.720062        -1.202485
 C         3.335081        -0.102469        -1.152608
 C         2.904675        -1.527842        -1.510188
 C         1.994520        -1.419504        -0.078509
 O         1.564193        -2.591765         0.559552
 C         3.240438        -0.486018         0.403638
 O         2.346700         0.432951         1.138562
 H        -0.307773         0.447689         1.440767
 H        -0.267456         1.290300        -0.217126
 H        -0.835560        -0.292157        -0.202436
 H         1.445612         0.514338        -2.011823
 H         2.231762         1.714751        -1.016783
 H         4.279024         0.359590        -1.433123
 H         2.518121        -1.546170        -2.613754
 H         3.546364        -2.395596        -1.472112
 H         1.452777        -3.291080        -0.083258
 H         4.172531        -0.876504         1.022759
