19
Iteration:  2289
 C         0.019522         0.237717         0.421676
 C         1.404348         0.113473         0.100958
 C         2.033987         0.708608        -1.210308
 C         3.294492        -0.043271        -1.212619
 C         2.750462        -1.537647        -1.463102
 C         2.028949        -1.356213        -0.162987
 O         1.601131        -2.522981         0.534149
 C         3.261719        -0.508228         0.361347
 O         2.464929         0.392875         1.143224
 H        -0.302657        -0.110784         1.420337
 H        -0.115874         1.289149         0.329815
 H        -0.592499        -0.275956        -0.404069
 H         1.322210         0.476046        -2.072745
 H         2.108014         1.784593        -1.210087
 H         4.142611         0.264668        -1.683123
 H         2.148755        -1.627380        -2.336472
 H         3.601105        -2.261133        -1.333251
 H         0.732658        -2.358749         1.038465
 H         4.319354        -0.641048         0.736489
