19
Iteration:  3518
 C        -0.050611         0.260509         0.368542
 C         1.354498        -0.030394        -0.006160
 C         2.088620         0.740492        -1.150198
 C         3.330584        -0.081131        -1.134926
 C         2.887836        -1.482170        -1.479948
 C         2.074505        -1.421629        -0.174753
 O         1.506370        -2.420549         0.569284
 C         3.291297        -0.501638         0.417714
 O         2.338721         0.409104         1.069790
 H        -0.544627        -0.432136         0.998905
 H        -0.168272         1.222813         0.757955
 H        -0.596782         0.270645        -0.571956
 H         1.617912         0.898957        -2.145211
 H         2.103336         1.770781        -0.875714
 H         4.289970         0.212715        -1.631249
 H         2.240138        -1.720701        -2.334508
 H         3.456592        -2.346771        -1.312168
 H         2.168691        -2.875677         1.052767
 H         4.120622        -0.790883         1.091259
