19
Iteration:  2851
 C        -0.044960         0.139418         0.373559
 C         1.424375         0.030004         0.062138
 C         2.012545         0.811061        -1.167756
 C         3.304238        -0.095118        -1.178672
 C         2.872538        -1.550092        -1.475228
 C         2.150852        -1.421223        -0.124990
 O         1.466014        -2.444355         0.561973
 C         3.336004        -0.408967         0.328626
 O         2.415126         0.378327         1.136250
 H        -0.577816        -0.239132         1.235601
 H        -0.373412         1.240425         0.428152
 H        -0.446064        -0.284983        -0.562952
 H         1.450029         0.660946        -2.124541
 H         2.071927         1.941032        -1.193175
 H         4.093185         0.390964        -1.757233
 H         2.264230        -1.642521        -2.436499
 H         3.678519        -2.200928        -1.237837
 H         0.770180        -2.140828         1.198156
 H         4.244830        -0.899611         0.810733
