19
Iteration:  4087charge 0 multiplicity 1
 C         0.013694         0.101185         0.265212
 C         1.443360         0.040351        -0.069229
 C         2.155243         0.783690        -1.177743
 C         3.408424        -0.111893        -1.121510
 C         2.730533        -1.537702        -1.500871
 C         2.122220        -1.368905        -0.068602
 O         1.482877        -2.366799         0.599270
 C         3.206175        -0.494293         0.528652
 O         2.282283         0.473915         1.086016
 H        -0.125722        -0.528163         1.129356
 H        -0.401285         1.035963         0.497803
 H        -0.539392        -0.418548        -0.428939
 H         1.706951         0.864944        -2.196198
 H         2.229878         1.810953        -0.853442
 H         4.367960         0.337920        -1.486656
 H         1.984285        -1.540224        -2.321089
 H         3.454410        -2.278087        -1.537258
 H         1.897288        -3.243369         0.295638
 H         4.155584        -0.860377         1.010970
