19
Iteration:     4
 C        -0.069757         0.162099         0.330977
 C         1.399315         0.051202         0.001202
 C         2.042111         0.741375        -1.200707
 C         3.364988        -0.083291        -1.101378
 C         2.818656        -1.497260        -1.463645
 C         2.095318        -1.383029        -0.089304
 O         1.620981        -2.514148         0.513118
 C         3.247277        -0.434724         0.430465
 O         2.323997         0.426673         1.091354
 H        -0.360380        -0.506093         1.188601
 H        -0.163814         1.244784         0.643990
 H        -0.695634        -0.163361        -0.480492
 H         1.486807         0.577824        -2.213888
 H         2.185656         1.860542        -1.093927
 H         4.262429         0.411254        -1.665746
 H         2.211101        -1.675620        -2.396267
 H         3.566833        -2.269711        -1.467519
 H         1.359774        -2.205762         1.387505
 H         4.188500        -0.719221         0.874659
