19
Iteration:   272
 C        -0.035387         0.213065         0.316140
 C         1.378444        -0.058096         0.029476
 C         2.057066         0.785157        -1.172043
 C         3.253122        -0.042579        -1.236281
 C         2.830775        -1.463482        -1.488263
 C         2.093067        -1.431056        -0.118982
 O         1.642396        -2.478649         0.652106
 C         3.298231        -0.400082         0.349366
 O         2.353159         0.299779         1.169530
 H        -0.347128        -0.141798         1.317492
 H        -0.134816         1.323514         0.271403
 H        -0.678772        -0.044938        -0.543956
 H         1.467691         0.691008        -2.162134
 H         2.078188         1.872006        -0.847278
 H         4.122010         0.210249        -1.564964
 H         2.297710        -1.580745        -2.403053
 H         3.773793        -2.048788        -1.494732
 H         0.656658        -2.228002         0.673878
 H         4.272273        -0.601863         0.802348
