19
Iteration:  2864charge 0 multiplicity 1
 C         0.022191         0.194497         0.314872
 C         1.467908         0.014687         0.085902
 C         1.954846         0.679713        -1.149071
 C         3.286785        -0.008054        -1.174761
 C         2.810983        -1.507802        -1.470465
 C         2.081871        -1.338641        -0.085844
 O         1.508273        -2.446962         0.524445
 C         3.342149        -0.504501         0.404072
 O         2.402555         0.396758         1.069449
 H        -0.161284        -0.341061         1.257174
 H        -0.206245         1.221960         0.309114
 H        -0.625159        -0.260264        -0.508068
 H         1.316746         0.348012        -1.995586
 H         2.070886         1.703030        -0.820288
 H         4.254586         0.355076        -1.613953
 H         2.360186        -1.895381        -2.432013
 H         3.657421        -2.151116        -1.452202
 H         0.713580        -2.115978         0.988609
 H         4.382505        -0.585806         1.008316
