19
Iteration:   716charge 0 multiplicity 1
 C        -0.006622         0.129630         0.365008
 C         1.409990        -0.020883         0.094715
 C         2.128843         0.805142        -1.231223
 C         3.345439        -0.046176        -1.199244
 C         2.704407        -1.482642        -1.565105
 C         2.171705        -1.448329        -0.096723
 O         1.521659        -2.475218         0.662065
 C         3.277566        -0.429968         0.458792
 O         2.270825         0.464893         1.057902
 H        -0.149195        -0.409683         1.303585
 H        -0.169884         1.125283         0.533956
 H        -0.741008         0.052927        -0.450667
 H         1.675409         0.914343        -2.159325
 H         2.203214         1.873809        -0.963594
 H         4.296963        -0.015231        -1.631835
 H         2.014159        -1.488058        -2.360225
 H         3.492965        -2.156075        -1.878188
 H         2.018381        -3.359593         0.558996
 H         4.231013        -0.616679         0.960777
