19
Iteration:  4992charge 0 multiplicity 1
 C        -0.017124         0.479950         0.421571
 C         1.403185         0.051759         0.119311
 C         2.091913         0.845097        -1.087678
 C         3.372303        -0.119027        -1.175263
 C         2.732211        -1.518069        -1.633200
 C         2.007372        -1.367217        -0.137744
 O         1.548236        -2.543007         0.447453
 C         3.294196        -0.582553         0.355598
 O         2.391855         0.239629         1.133900
 H        -0.139220         0.364420         1.499575
 H        -0.209119         1.411011        -0.132685
 H        -0.582121        -0.399440         0.051570
 H         1.442765         0.808374        -1.911975
 H         2.322960         1.882031        -0.784748
 H         4.217757         0.315150        -1.551715
 H         2.074290        -1.573484        -2.520707
 H         3.420370        -2.316322        -1.351482
 H         1.625053        -2.257384         1.406179
 H         4.111178        -1.035829         0.976258
