19
Iteration:  2360charge 0 multiplicity 1
 C        -0.031843         0.236206         0.362816
 C         1.393087         0.082181         0.039732
 C         2.032659         0.734801        -1.172364
 C         3.268798        -0.125175        -1.219180
 C         2.767372        -1.515950        -1.492875
 C         2.151300        -1.363008        -0.113942
 O         1.552186        -2.393967         0.632828
 C         3.247309        -0.496327         0.428864
 O         2.456711         0.366391         1.088812
 H        -0.376809        -0.710829         0.924228
 H        -0.220797         1.197627         1.053064
 H        -0.604955         0.210007        -0.568132
 H         1.335154         0.509257        -2.015218
 H         2.174467         1.866219        -1.351969
 H         4.243004         0.466266        -1.654321
 H         2.002117        -1.549645        -2.343283
 H         3.579865        -2.211665        -1.321907
 H         1.585865        -3.276335         0.136856
 H         4.133640        -0.853630         0.946216
