19
Iteration:  2916
 C        -0.023674         0.282171         0.476886
 C         1.331870         0.070691        -0.105054
 C         2.080459         0.802667        -1.168313
 C         3.316191        -0.138055        -1.173893
 C         2.821138        -1.562414        -1.419302
 C         2.080659        -1.367065        -0.105938
 O         1.668933        -2.592313         0.483162
 C         3.166322        -0.468441         0.412439
 O         2.330739         0.459121         1.059736
 H        -0.146329        -0.164163         1.474460
 H        -0.266481         1.440116         0.595887
 H        -0.716341        -0.016330        -0.351832
 H         1.595715         0.748604        -2.180422
 H         2.460164         1.798884        -0.797223
 H         4.267262         0.116394        -1.694461
 H         2.211417        -1.635225        -2.425341
 H         3.596770        -2.351919        -1.361817
 H         1.712519        -2.363980         1.384545
 H         3.947246        -1.044946         1.000701
