19
Iteration:   593charge 0 multiplicity 1
 C        -0.047701         0.144837         0.368559
 C         1.405295         0.090138         0.011335
 C         2.089580         0.825346        -1.192010
 C         3.244621        -0.062343        -1.182586
 C         2.833569        -1.533414        -1.451907
 C         2.112930        -1.376364        -0.138419
 O         1.559296        -2.410781         0.614288
 C         3.196567        -0.564805         0.317985
 O         2.371867         0.382321         1.075246
 H        -0.313935        -0.406670         1.232070
 H        -0.304857         1.158556         0.647724
 H        -0.735534        -0.213038        -0.343401
 H         1.466282         0.758285        -2.020796
 H         2.288199         1.767196        -0.609069
 H         4.216870         0.377694        -1.678848
 H         2.331157        -1.718615        -2.429452
 H         3.666083        -2.145881        -1.288877
 H         2.355795        -2.673280         1.192571
 H         4.041779        -0.893421         0.805937
