19
Iteration:    24charge 0 multiplicity 1
 C        -0.088738         0.149186         0.391022
 C         1.395082         0.129216         0.025379
 C         2.088741         0.662417        -1.297747
 C         3.383486        -0.102525        -1.109293
 C         2.744902        -1.479876        -1.443587
 C         2.074957        -1.312999        -0.093586
 O         1.690581        -2.584107         0.435188
 C         3.240258        -0.433561         0.468909
 O         2.374529         0.548090         1.155146
 H        -0.229390        -0.550168         1.263535
 H        -0.607646         1.105390         0.599262
 H        -0.587334        -0.404278        -0.387392
 H         1.487209         0.331258        -2.248629
 H         2.081349         1.773227        -1.364759
 H         4.465971         0.161835        -1.444385
 H         2.191484        -1.522618        -2.428289
 H         3.303305        -2.383883        -1.398166
 H         0.765040        -2.603885         0.888882
 H         3.970056        -0.830219         1.122253
