19
Iteration:   241charge 0 multiplicity 1
 C        -0.100679         0.157441         0.357105
 C         1.423721         0.094387         0.053970
 C         2.006142         0.775166        -1.152142
 C         3.348297        -0.119771        -1.099279
 C         2.738501        -1.508942        -1.475568
 C         2.112566        -1.394906        -0.078173
 O         1.703770        -2.527105         0.476712
 C         3.230547        -0.501733         0.431728
 O         2.428974         0.499603         1.040703
 H        -0.604662        -0.412708         1.212169
 H        -0.615923         1.159992         0.446026
 H        -0.625295        -0.268719        -0.473945
 H         1.601385         0.439134        -2.041041
 H         2.129752         1.857608        -1.148232
 H         4.397971         0.140869        -1.367199
 H         2.017694        -1.317480        -2.370997
 H         3.449957        -2.297215        -1.669937
 H         0.893721        -2.291373         0.911869
 H         4.070283        -0.755270         1.110629
