19
Iteration:  2815charge 0 multiplicity 1
 C         0.033480         0.154168         0.386320
 C         1.404546         0.024427         0.000054
 C         2.094293         0.826265        -1.177923
 C         3.375259        -0.142870        -1.104728
 C         2.709193        -1.480910        -1.468935
 C         2.092791        -1.367952        -0.112962
 O         1.589228        -2.495249         0.541788
 C         3.234508        -0.488958         0.408823
 O         2.281474         0.448677         1.026001
 H        -0.243434        -0.537087         1.204229
 H        -0.149688         1.289423         0.577956
 H        -0.580540        -0.131289        -0.440294
 H         1.675708         0.672474        -2.175970
 H         2.345662         1.880312        -0.912736
 H         4.184976         0.184265        -1.733967
 H         2.140088        -1.543800        -2.384524
 H         3.353753        -2.408720        -1.507361
 H         2.006194        -2.299735         1.404705
 H         3.937483        -0.816735         1.052622
