19
Iteration:  3953charge 0 multiplicity 1
 C        -0.082660         0.236319         0.277207
 C         1.432488        -0.022148         0.037714
 C         2.044393         0.726223        -1.194711
 C         3.365761        -0.123127        -1.110535
 C         2.865650        -1.472100        -1.579774
 C         2.144120        -1.392463        -0.054179
 O         1.517895        -2.416893         0.575900
 C         3.338673        -0.467981         0.412459
 O         2.313537         0.394751         1.122394
 H        -0.611826        -0.586597         0.760024
 H        -0.272267         1.098864         0.853547
 H        -0.539671         0.191472        -0.664264
 H         1.414273         0.483866        -2.047974
 H         2.270946         1.748579        -0.790459
 H         4.241188         0.390000        -1.615366
 H         2.243093        -1.887797        -2.371062
 H         3.659702        -2.197431        -1.405320
 H         0.677248        -2.152200         1.027004
 H         4.252405        -0.717384         0.964639
