19
Iteration:  4425
 C        -0.101985         0.184048         0.223974
 C         1.412898         0.040803         0.012306
 C         2.015159         0.776757        -1.157268
 C         3.332822        -0.125269        -1.091912
 C         2.779310        -1.500497        -1.422781
 C         2.136147        -1.349244        -0.086167
 O         1.582956        -2.392540         0.538918
 C         3.289831        -0.535135         0.370694
 O         2.451932         0.377109         1.144230
 H        -0.485375        -0.614043         0.917915
 H        -0.353324         1.143152         0.721178
 H        -0.558488         0.170395        -0.829271
 H         1.539862         0.590312        -2.099312
 H         2.229971         1.782626        -0.948486
 H         4.304476         0.254837        -1.494409
 H         2.140556        -1.794025        -2.323150
 H         3.330715        -2.416007        -1.290273
 H         0.609854        -2.100679         0.549618
 H         4.257743        -0.832050         1.024475
