19
Iteration:  1956charge 0 multiplicity 1
 C         0.030045         0.254331         0.430758
 C         1.435056         0.115020         0.032620
 C         2.015092         0.764444        -1.175346
 C         3.299256        -0.141731        -1.288941
 C         2.629522        -1.487326        -1.540780
 C         2.158009        -1.400527        -0.073695
 O         1.527688        -2.526421         0.636050
 C         3.316482        -0.492167         0.414022
 O         2.424900         0.423254         1.078735
 H        -0.203099        -0.449050         1.278261
 H         0.141817         1.238924         0.932558
 H        -0.696003         0.140277        -0.326039
 H         1.352376         0.940371        -2.017623
 H         2.166661         1.862604        -0.919871
 H         4.268079         0.135325        -1.669894
 H         1.914045        -1.534396        -2.303151
 H         3.352320        -2.230307        -1.683161
 H         1.580747        -3.347372         0.088930
 H         4.215671        -0.616029         0.944391
