19
Iteration:  4519
 C        -0.038105         0.306911         0.239076
 C         1.411263         0.059593         0.014273
 C         2.005299         0.764367        -1.155114
 C         3.344239        -0.049200        -1.086371
 C         2.746291        -1.468608        -1.428376
 C         2.183453        -1.442088        -0.074658
 O         1.483184        -2.501534         0.548972
 C         3.256752        -0.502597         0.485776
 O         2.448243         0.380962         1.085093
 H        -0.223321         0.310220         1.338854
 H        -0.308627         1.308923        -0.138294
 H        -0.620473        -0.427568        -0.252960
 H         1.522497         0.599350        -2.175391
 H         2.057515         1.937180        -0.895362
 H         4.292449         0.201305        -1.658992
 H         2.201958        -1.803295        -2.258167
 H         3.630663        -2.233851        -1.434881
 H         1.393661        -3.260442        -0.052084
 H         4.175567        -0.886477         0.797790
