19
Iteration:  2452charge 0 multiplicity 1
 C        -0.047627         0.303833         0.403030
 C         1.394385         0.001814        -0.046477
 C         1.987967         0.824223        -1.158082
 C         3.275775        -0.082998        -1.244674
 C         2.879855        -1.527133        -1.535574
 C         2.108885        -1.411324        -0.069685
 O         1.531555        -2.507684         0.552342
 C         3.286646        -0.557815         0.452928
 O         2.377038         0.437605         1.110278
 H        -0.300074         0.174862         1.427366
 H        -0.189554         1.320826         0.153548
 H        -0.833559        -0.296609        -0.186837
 H         1.499193         0.725596        -2.143189
 H         2.198184         1.853985        -1.081271
 H         4.134733         0.317570        -1.638836
 H         2.276772        -1.754729        -2.409838
 H         3.611573        -2.336523        -1.262839
 H         2.140190        -2.659290         1.326644
 H         4.224602        -0.998395         0.933995
