19
Iteration:  2012
 C         0.031715         0.248196         0.619108
 C         1.364374         0.150163         0.054669
 C         2.025631         0.743187        -1.289482
 C         3.294711        -0.101281        -1.212732
 C         2.818046        -1.525029        -1.515367
 C         2.067612        -1.396107        -0.190476
 O         1.591130        -2.473118         0.598645
 C         3.243042        -0.559401         0.381867
 O         2.408537         0.395800         1.045171
 H        -0.173794        -0.454694         1.445026
 H        -0.061553         1.308563         0.938898
 H        -0.645773         0.252586        -0.190790
 H         1.653895         0.495194        -2.222493
 H         2.265150         1.784921        -1.049915
 H         4.198684         0.294088        -1.641762
 H         2.188967        -1.677861        -2.306624
 H         3.662246        -2.133087        -1.545721
 H         0.667886        -2.583115         0.471892
 H         4.046365        -0.933172         0.969115
