19
Iteration:  4889
 C         0.011843         0.131869         0.456393
 C         1.465647         0.050943         0.012280
 C         2.104850         0.723421        -1.188561
 C         3.367529        -0.121206        -1.126628
 C         2.733770        -1.479746        -1.552036
 C         2.117971        -1.392587        -0.165433
 O         1.313097        -2.303675         0.574058
 C         3.296779        -0.542096         0.426188
 O         2.463553         0.395350         1.114894
 H        -0.174645        -0.847977         0.936011
 H        -0.007174         0.845847         1.293153
 H        -0.590731         0.436487        -0.432948
 H         1.603099         0.956800        -2.139166
 H         2.178324         1.750903        -0.850377
 H         4.274901         0.401822        -1.665876
 H         2.332070        -1.473556        -2.497601
 H         3.335688        -2.323865        -1.503241
 H         1.168092        -2.966092        -0.056817
 H         4.204625        -0.855736         0.893865
