19
Iteration:  2178
 C         0.001134         0.295293         0.454369
 C         1.485881        -0.042396         0.034296
 C         1.925176         0.739965        -1.233188
 C         3.256067        -0.012477        -1.207364
 C         2.739008        -1.481001        -1.456095
 C         2.203859        -1.453995        -0.101688
 O         1.375111        -2.489111         0.563602
 C         3.374759        -0.432812         0.376320
 O         2.457839         0.415567         1.086095
 H        -0.465718        -0.460654         1.080286
 H        -0.034869         1.288064         1.023244
 H        -0.524857         0.480708        -0.566531
 H         1.435392         0.412804        -2.163116
 H         2.244280         1.823437        -1.059237
 H         4.211189         0.266277        -1.822521
 H         2.174781        -1.683075        -2.374203
 H         3.550220        -2.307676        -1.429760
 H         1.876874        -3.215100         0.911982
 H         4.303924        -0.941031         0.946991
