19
Iteration:  4811
 C         0.012677         0.543477         0.358965
 C         1.377185         0.052654         0.063178
 C         2.048382         0.755753        -1.206044
 C         3.279507        -0.135633        -1.156440
 C         2.755506        -1.498233        -1.515897
 C         2.062489        -1.431180        -0.168448
 O         1.654223        -2.611847         0.508775
 C         3.315739        -0.492661         0.431116
 O         2.366995         0.287468         1.211019
 H        -0.493606         0.029311         1.220307
 H         0.130950         1.635142         0.615394
 H        -0.652664         0.423505        -0.463752
 H         1.593405         0.519306        -2.153319
 H         2.135085         1.772004        -0.924814
 H         4.233358         0.366094        -1.462811
 H         2.079992        -1.451170        -2.348540
 H         3.468752        -2.250319        -1.607958
 H         0.709275        -2.702731         0.312518
 H         4.179715        -0.859724         0.965003
