19
Iteration:  2254
 C        -0.013436         0.211407         0.418849
 C         1.461720         0.007537         0.054384
 C         2.030178         0.791700        -1.155504
 C         3.267460        -0.059117        -1.156589
 C         2.752681        -1.577411        -1.536825
 C         2.095830        -1.435360        -0.114103
 O         1.565419        -2.410210         0.623584
 C         3.249546        -0.513956         0.400088
 O         2.442129         0.429250         1.045532
 H        -0.160667        -0.051847         1.425688
 H        -0.171577         1.315329         0.440362
 H        -0.770636        -0.221819        -0.278986
 H         1.561774         0.718462        -2.155196
 H         2.266468         1.873389        -0.858325
 H         4.263441         0.331298        -1.599331
 H         1.951210        -1.623358        -2.334324
 H         3.524102        -2.241467        -1.968091
 H         0.912487        -3.066381         0.193083
 H         4.314080        -0.601890         0.853864
