19
Iteration:  3142charge 0 multiplicity 1
 C        -0.054267         0.190702         0.264697
 C         1.383452         0.062858         0.023420
 C         2.002787         0.764674        -1.120907
 C         3.329959        -0.105694        -1.171695
 C         2.842233        -1.517281        -1.431854
 C         2.118306        -1.394179        -0.089681
 O         1.494537        -2.422563         0.544617
 C         3.237549        -0.476467         0.384618
 O         2.417306         0.408478         1.118163
 H        -0.454554        -0.700130         0.878982
 H        -0.263513         1.228137         0.707198
 H        -0.600269         0.095838        -0.671474
 H         1.644370         0.799281        -2.174361
 H         2.118027         1.901604        -0.970230
 H         4.253544         0.257290        -1.711121
 H         2.360129        -1.805203        -2.365482
 H         3.705194        -2.289164        -1.315170
 H         2.115260        -2.882276         1.216324
 H         4.140537        -0.837229         0.840726
