19
Iteration:  1454
 C         0.030414         0.400105         0.493301
 C         1.402743        -0.034549        -0.015805
 C         2.046286         0.785675        -1.113825
 C         3.282522        -0.080394        -1.238414
 C         2.604389        -1.547272        -1.535129
 C         2.162867        -1.452025        -0.080964
 O         1.623198        -2.593400         0.530660
 C         3.288427        -0.490281         0.366465
 O         2.446437         0.445483         1.043509
 H        -0.134688        -0.139662         1.482504
 H        -0.094441         1.498451         0.740478
 H        -0.783476         0.164739        -0.265118
 H         1.399264         0.904262        -1.990693
 H         2.193235         1.867170        -0.785045
 H         4.159527         0.263190        -1.653794
 H         1.843694        -1.526231        -2.216699
 H         3.381852        -2.345682        -1.672610
 H         0.902000        -2.514031         1.128433
 H         4.151960        -0.954698         0.871568
