19
Iteration:  2758
 C         0.036100         0.341747         0.318005
 C         1.345460        -0.039718        -0.007792
 C         1.966985         0.702683        -1.152713
 C         3.258113        -0.057809        -1.161385
 C         2.907548        -1.560155        -1.522741
 C         2.115738        -1.349438        -0.092468
 O         1.524790        -2.486286         0.583475
 C         3.244557        -0.430836         0.316965
 O         2.351786         0.369329         1.178182
 H        -0.389002        -0.287547         1.212946
 H         0.042306         1.340440         0.683695
 H        -0.582133         0.150938        -0.687264
 H         1.479289         0.705723        -2.195491
 H         2.118954         1.793673        -1.064187
 H         4.177833         0.569875        -1.551222
 H         2.429165        -1.780912        -2.455889
 H         3.751247        -2.219501        -1.054031
 H         2.187874        -3.030346         1.069689
 H         4.190434        -0.816733         0.822868
