19
Iteration:  1151
 C        -0.070340         0.360437         0.423700
 C         1.405998        -0.026357         0.044166
 C         1.999181         0.723946        -1.218738
 C         3.330640        -0.053981        -1.254234
 C         2.724108        -1.499920        -1.492812
 C         2.160873        -1.406781        -0.070496
 O         1.532057        -2.503201         0.596404
 C         3.309922        -0.507583         0.352642
 O         2.429913         0.414906         1.125561
 H        -0.371680        -0.130038         1.451879
 H        -0.189097         1.484418         0.694980
 H        -0.694232        -0.025007        -0.378931
 H         1.347897         0.665941        -2.042319
 H         2.123019         1.807045        -1.025267
 H         4.238672         0.222765        -1.738407
 H         1.877885        -1.422983        -2.284009
 H         3.549167        -2.279091        -1.557260
 H         2.110181        -3.281411         0.342043
 H         4.226892        -0.871830         0.919446
