19
Iteration:  1545charge 0 multiplicity 1
 C         0.055384         0.166099         0.567624
 C         1.494167         0.084775         0.067953
 C         2.028807         0.846839        -1.202485
 C         3.230270        -0.165049        -1.265307
 C         2.620287        -1.548572        -1.501467
 C         2.095055        -1.403068        -0.091734
 O         1.447219        -2.408289         0.535673
 C         3.330162        -0.541573         0.416214
 O         2.508661         0.470782         1.051897
 H        -0.120394        -0.624444         1.329936
 H        -0.175537         1.215000         0.917668
 H        -0.531097         0.081479        -0.340218
 H         1.227205         0.766235        -2.032554
 H         2.429115         1.911115        -1.139999
 H         4.222487         0.178852        -1.828551
 H         1.944883        -1.503547        -2.305966
 H         3.417348        -2.296455        -1.497273
 H         1.678048        -3.270612         0.132788
 H         4.297790        -0.890235         0.818099
