19
Iteration:  2578
 C        -0.023954         0.322321         0.334421
 C         1.418474         0.021820         0.041334
 C         1.981383         0.709301        -1.270199
 C         3.283175        -0.054682        -1.110606
 C         2.857141        -1.573804        -1.427552
 C         2.146782        -1.398017        -0.121951
 O         1.559889        -2.546664         0.525987
 C         3.292469        -0.456163         0.400613
 O         2.370385         0.437171         1.118393
 H        -0.440801        -0.587086         0.850647
 H        -0.184817         1.305550         0.936371
 H        -0.581140         0.167483        -0.518388
 H         1.509029         0.296985        -2.161004
 H         1.773455         1.832437        -1.180161
 H         4.218889         0.521070        -1.390882
 H         2.019733        -1.532373        -2.234518
 H         3.591369        -2.291683        -1.724443
 H         1.469823        -2.202033         1.430181
 H         4.213208        -0.777846         0.869085
