19
Iteration:  2068
 C        -0.049724         0.287948         0.329187
 C         1.428936         0.076422         0.098818
 C         1.994384         0.824737        -1.155389
 C         3.246986        -0.073284        -1.211973
 C         2.674651        -1.548772        -1.499921
 C         2.063388        -1.348386        -0.086915
 O         1.607384        -2.517839         0.564415
 C         3.344212        -0.547179         0.315104
 O         2.552808         0.359665         1.155215
 H        -0.355667        -0.097335         1.288103
 H        -0.635915         1.246191         0.355180
 H        -0.465249        -0.292817        -0.502874
 H         1.552774         0.636018        -2.121705
 H         1.927561         1.928330        -1.134848
 H         4.250098         0.201710        -1.694945
 H         2.029134        -1.739828        -2.271906
 H         3.394607        -2.318907        -1.638957
 H         0.931730        -2.313683         1.289692
 H         4.320562        -0.944514         0.795674
