19
Iteration:  3821
 C        -0.047646         0.187523         0.311406
 C         1.435736         0.065507        -0.044896
 C         2.055069         0.805955        -1.210082
 C         3.360034        -0.071385        -1.122916
 C         2.858273        -1.508070        -1.456976
 C         2.140846        -1.412146        -0.090953
 O         1.446421        -2.398283         0.579835
 C         3.283270        -0.511438         0.444415
 O         2.311377         0.367743         1.082229
 H        -0.193159        -0.135247         1.340581
 H        -0.503362         1.208320         0.175590
 H        -0.590175        -0.395611        -0.460536
 H         1.505687         0.803541        -2.193296
 H         1.997946         1.903737        -0.869216
 H         4.380243         0.166061        -1.414231
 H         2.350174        -1.764226        -2.349496
 H         3.736330        -2.210584        -1.340915
 H         2.053100        -3.197611         0.718820
 H         4.039319        -0.722399         1.180273
