19
Iteration:  3598charge 0 multiplicity 1
 C        -0.045789         0.217440         0.388044
 C         1.408868         0.139511        -0.015073
 C         2.142129         0.841467        -1.273579
 C         3.320932        -0.110124        -1.156010
 C         2.900626        -1.498058        -1.482066
 C         2.117846        -1.446769        -0.092990
 O         1.530985        -2.513442         0.625115
 C         3.222867        -0.461481         0.457579
 O         2.307230         0.405639         1.044682
 H        -0.229120        -0.363179         1.345839
 H        -0.431441         1.229114         0.560319
 H        -0.678928        -0.273065        -0.337286
 H         1.413060         0.527597        -2.088683
 H         2.299905         1.840108        -0.799193
 H         4.352948         0.204808        -1.310846
 H         2.291576        -1.627503        -2.395797
 H         3.544212        -2.309916        -1.330214
 H         1.102916        -3.058737        -0.042237
 H         4.050212        -0.788741         1.111689
