19
Iteration:   426
 C        -0.036284         0.171738         0.386832
 C         1.402762         0.055371        -0.013046
 C         2.082406         0.868850        -1.199721
 C         3.286551        -0.107662        -1.140189
 C         2.733057        -1.478430        -1.484142
 C         2.109942        -1.401764        -0.081748
 O         1.648236        -2.548727         0.526861
 C         3.281477        -0.439966         0.392229
 O         2.338952         0.373708         1.046672
 H        -0.243496        -0.414292         1.329536
 H        -0.241023         1.227941         0.707470
 H        -0.729146        -0.261671        -0.275274
 H         1.629143         0.859232        -2.261703
 H         2.344604         1.940547        -0.771139
 H         4.216925         0.163840        -1.551768
 H         2.068559        -1.647139        -2.343292
 H         3.302995        -2.396017        -1.293470
 H         1.187625        -2.219588         1.373159
 H         4.287826        -0.640371         0.919278
