19
Iteration:  4697
 C         0.005703         0.258229         0.334716
 C         1.445209         0.054488         0.017122
 C         2.118132         0.772461        -1.120635
 C         3.347351        -0.151852        -1.140952
 C         2.795720        -1.460899        -1.514804
 C         2.067897        -1.417717        -0.168744
 O         1.421636        -2.377585         0.623772
 C         3.259535        -0.533617         0.372748
 O         2.367188         0.352669         1.107989
 H        -0.246271        -0.346737         1.175073
 H        -0.045388         1.297287         0.575452
 H        -0.561656        -0.082035        -0.574722
 H         1.460787         0.838318        -2.065647
 H         2.295320         1.824516        -0.601911
 H         4.270017         0.201860        -1.532623
 H         2.181770        -1.525944        -2.360790
 H         3.502569        -2.289456        -1.362865
 H         1.764794        -3.174351         0.118396
 H         4.210221        -0.761427         0.913208
