19
Iteration:    52
 C        -0.039071         0.195864         0.373151
 C         1.402812        -0.046098        -0.064927
 C         2.019954         0.801208        -1.136402
 C         3.288061        -0.016365        -1.141992
 C         2.904175        -1.548982        -1.438073
 C         2.148847        -1.454547        -0.096987
 O         1.540784        -2.571067         0.553591
 C         3.307239        -0.376039         0.404015
 O         2.321402         0.480231         1.047693
 H        -0.182294        -0.168456         1.381833
 H        -0.066616         1.273505         0.392509
 H        -0.833604        -0.387446        -0.201607
 H         1.548353         0.861456        -2.088095
 H         2.170769         1.820689        -0.787430
 H         4.115766         0.358324        -1.613234
 H         2.466902        -1.854088        -2.369379
 H         3.761796        -2.296048        -1.298512
 H         0.530178        -2.433206         0.504577
 H         4.246168        -0.550865         1.012012
