19
Iteration:   466charge 0 multiplicity 1
 C        -0.052041         0.269271         0.358406
 C         1.430076         0.013937         0.120578
 C         1.911532         0.672017        -1.187590
 C         3.308118        -0.074335        -1.131850
 C         2.802364        -1.494330        -1.505663
 C         2.106825        -1.378906        -0.126339
 O         1.595657        -2.522199         0.524680
 C         3.345720        -0.459464         0.393893
 O         2.433583         0.402695         1.116306
 H        -0.460589        -0.249738         1.236155
 H        -0.341093         1.290051         0.374895
 H        -0.505650         0.032569        -0.641263
 H         1.279325         0.553389        -2.042380
 H         2.102667         1.679597        -1.116604
 H         4.146879         0.394397        -1.617600
 H         2.279851        -1.565832        -2.449574
 H         3.675152        -2.220476        -1.600390
 H         0.785262        -2.276320         0.966740
 H         4.281919        -0.477085         0.922594
