19
Iteration:  3119charge 0 multiplicity 1
 C        -0.112575         0.310758         0.322749
 C         1.405748         0.071070         0.019848
 C         2.091655         0.782044        -1.209497
 C         3.379719        -0.098850        -1.138150
 C         2.776349        -1.526761        -1.506602
 C         2.136234        -1.450686        -0.138044
 O         1.625332        -2.543475         0.568710
 C         3.239528        -0.453036         0.494689
 O         2.293331         0.384256         1.092033
 H        -0.542354        -0.454287         1.098993
 H        -0.279279         1.370799         0.633362
 H        -0.763903         0.095738        -0.513858
 H         1.496084         0.655090        -2.165493
 H         2.206015         1.931512        -1.088288
 H         4.386320         0.258766        -1.553473
 H         2.161084        -1.527949        -2.365661
 H         3.544720        -2.330107        -1.800028
 H         1.898729        -2.405593         1.446400
 H         4.128132        -0.831942         0.937896
