19
Iteration:   587charge 0 multiplicity 1
 C        -0.035242         0.158147         0.355335
 C         1.367485         0.048567        -0.007816
 C         2.078220         0.783922        -1.195648
 C         3.269968        -0.040871        -1.214085
 C         2.807107        -1.473260        -1.451136
 C         2.111516        -1.425862        -0.123386
 O         1.549758        -2.387022         0.617576
 C         3.245172        -0.517131         0.354671
 O         2.387372         0.347143         1.091498
 H        -0.378856        -0.424578         1.282343
 H        -0.250750         1.222781         0.609251
 H        -0.741007        -0.188231        -0.522245
 H         1.372690         0.811933        -2.104796
 H         2.340464         1.705367        -0.651707
 H         4.108707         0.382297        -1.631658
 H         2.164560        -1.735786        -2.285931
 H         3.796126        -2.102325        -1.413748
 H         2.156516        -2.701505         1.260882
 H         4.237088        -0.898426         0.834326
