19
Iteration:  2048
 C         0.001851         0.233292         0.473662
 C         1.494613         0.061494         0.029269
 C         2.056341         0.720292        -1.151765
 C         3.296254        -0.131735        -1.211019
 C         2.674432        -1.471186        -1.561808
 C         2.107987        -1.427077        -0.116981
 O         1.622051        -2.504104         0.599144
 C         3.248378        -0.501551         0.352921
 O         2.400557         0.418276         1.074905
 H        -0.400873         0.000735         1.415357
 H        -0.132381         1.366502         0.538650
 H        -0.748423        -0.059022        -0.348358
 H         1.458363         0.957474        -2.007772
 H         2.380583         1.713360        -0.873227
 H         4.114566         0.316188        -1.860044
 H         1.976295        -1.597851        -2.377097
 H         3.472785        -2.266456        -1.687620
 H         0.769142        -2.254279         0.920052
 H         4.134056        -0.780168         1.064689
