19
Iteration:  3097
 C         0.011533         0.342581         0.304021
 C         1.394894        -0.031637        -0.074286
 C         2.094217         0.726986        -1.210898
 C         3.317860        -0.079301        -1.077908
 C         2.723069        -1.448310        -1.468628
 C         2.047239        -1.377706        -0.100632
 O         1.744737        -2.570106         0.555595
 C         3.263156        -0.512430         0.432156
 O         2.243904         0.408128         1.083370
 H        -0.279807        -0.218088         1.298275
 H         0.052732         1.440261         0.491605
 H        -0.847366         0.106946        -0.315797
 H         1.510561         0.708231        -2.185054
 H         2.302563         1.755289        -0.733930
 H         4.248668         0.436139        -1.467311
 H         2.224534        -1.631790        -2.373130
 H         3.500478        -2.303105        -1.442875
 H         1.035943        -2.388543         1.290570
 H         4.147313        -0.928446         0.903738
