19
Iteration:  4336
 C        -0.037567         0.386637         0.320342
 C         1.362336         0.118733         0.045375
 C         2.015841         0.722730        -1.189348
 C         3.287482        -0.099373        -1.069204
 C         2.973820        -1.591140        -1.514589
 C         2.189856        -1.494322        -0.152132
 O         1.507701        -2.507200         0.506911
 C         3.201794        -0.504206         0.484707
 O         2.314222         0.449712         1.114892
 H        -0.610815        -0.376655         0.953545
 H        -0.100393         1.412589         0.718416
 H        -0.569024         0.664089        -0.572733
 H         1.548710         0.348170        -2.044896
 H         2.116688         1.781355        -1.255819
 H         4.134916         0.592951        -1.451241
 H         2.331802        -1.742520        -2.377728
 H         3.745555        -2.376154        -1.548386
 H         2.190683        -3.237815         0.714455
 H         4.066629        -0.781047         1.157183
