19
Iteration:  1166
 C         0.075460         0.290873         0.453852
 C         1.409145         0.058003         0.063689
 C         2.027539         0.761717        -1.134276
 C         3.233317        -0.172083        -1.158154
 C         2.675962        -1.540387        -1.522733
 C         2.093585        -1.391746        -0.133190
 O         1.603107        -2.448621         0.532838
 C         3.245728        -0.474747         0.401893
 O         2.381686         0.387753         1.033126
 H        -0.275968        -0.249289         1.316945
 H         0.081742         1.380397         0.480336
 H        -0.688586         0.116786        -0.374965
 H         1.587643         0.709869        -2.203187
 H         2.212346         1.789348        -0.846262
 H         4.074816         0.356858        -1.722223
 H         2.011253        -1.747222        -2.376715
 H         3.502396        -2.206212        -1.387642
 H         2.348461        -3.003511         0.901409
 H         4.189733        -0.719894         0.844146
