19
Iteration:  1934charge 0 multiplicity 1
 C        -0.025323         0.247250         0.484126
 C         1.375063         0.101872         0.076984
 C         2.158517         0.782195        -1.177520
 C         3.278331        -0.119823        -1.198363
 C         2.580983        -1.514199        -1.554776
 C         2.084937        -1.398884        -0.152843
 O         1.613166        -2.419781         0.640084
 C         3.257861        -0.567425         0.308080
 O         2.439285         0.398242         1.064617
 H        -0.329441        -0.481967         1.306385
 H        -0.188300         1.338725         0.824332
 H        -0.615282        -0.124787        -0.320542
 H         1.517685         0.903714        -2.080674
 H         2.212325         1.893342        -0.868930
 H         4.266539         0.210168        -1.549293
 H         2.059924        -1.551845        -2.469615
 H         3.300247        -2.288497        -1.510357
 H         2.262325        -3.125114         0.457724
 H         4.084021        -0.963207         0.849747
