19
Iteration:  1336charge 0 multiplicity 1
 C         0.029593         0.310429         0.415360
 C         1.488448         0.096455         0.069676
 C         1.965833         0.719804        -1.087362
 C         3.272371        -0.105558        -1.223910
 C         2.694125        -1.562398        -1.536485
 C         2.035845        -1.333360        -0.125466
 O         1.564967        -2.479953         0.610507
 C         3.324293        -0.537548         0.348118
 O         2.486187         0.424094         1.080995
 H        -0.353640        -0.319323         1.229507
 H        -0.285228         1.333238         0.630564
 H        -0.455149         0.057062        -0.441356
 H         1.114812         0.595922        -1.746567
 H         2.155254         1.855102        -1.077879
 H         4.088035         0.313222        -1.751853
 H         1.944415        -1.527809        -2.387573
 H         3.506111        -2.362789        -1.338764
 H         1.563427        -3.221669        -0.090390
 H         4.119346        -1.044948         0.937904
