19
Iteration:  1853charge 0 multiplicity 1
 C        -0.014959         0.255851         0.639506
 C         1.372904         0.092036         0.145622
 C         2.082125         0.801054        -1.208455
 C         3.289037        -0.222026        -1.194414
 C         2.709799        -1.481524        -1.545727
 C         2.073928        -1.388683        -0.183580
 O         1.594959        -2.555769         0.501816
 C         3.294786        -0.553175         0.301567
 O         2.478415         0.532105         1.057074
 H         0.089260        -0.219694         1.591351
 H        -0.312005         1.243704         0.795617
 H        -0.709063        -0.098111        -0.193312
 H         1.373731         0.556886        -2.078137
 H         2.257891         1.837402        -1.156329
 H         4.182886         0.134584        -1.651870
 H         1.965683        -1.564306        -2.372537
 H         3.358555        -2.392088        -1.441713
 H         0.656145        -2.423145         0.598041
 H         4.215989        -0.903847         0.850353
