19
Iteration:  3459charge 0 multiplicity 1
 C        -0.010367         0.120064         0.308430
 C         1.456213         0.027360         0.036473
 C         2.084476         0.767953        -1.114320
 C         3.381638        -0.119771        -1.141385
 C         2.778559        -1.457193        -1.461702
 C         2.071027        -1.340352        -0.119185
 O         1.483757        -2.475813         0.482122
 C         3.285028        -0.479340         0.362525
 O         2.367255         0.444575         1.081950
 H        -0.137619        -0.365600         1.281456
 H        -0.270251         1.221205         0.401236
 H        -0.551222        -0.336662        -0.553290
 H         1.525309         0.468057        -1.948232
 H         2.148680         1.798028        -0.694551
 H         4.307263         0.249646        -1.494891
 H         2.054865        -1.566446        -2.242885
 H         3.388224        -2.423280        -1.231020
 H         1.072125        -2.303259         1.405174
 H         4.223934        -0.631039         0.933419
