19
Iteration:  3176
 C        -0.021206         0.093161         0.378947
 C         1.405845         0.062813        -0.025183
 C         2.032112         0.783694        -1.215094
 C         3.363082        -0.131079        -1.097160
 C         2.844554        -1.529642        -1.487683
 C         2.210401        -1.417016        -0.078107
 O         1.420530        -2.324056         0.563068
 C         3.245857        -0.435713         0.469228
 O         2.349312         0.423342         1.048834
 H        -0.157740        -0.656047         1.186869
 H        -0.451746         1.059896         0.926722
 H        -0.653424        -0.068632        -0.535406
 H         1.685649         0.346949        -2.183871
 H         2.201984         1.878182        -0.912281
 H         4.271801         0.262489        -1.546930
 H         2.147394        -1.462730        -2.384978
 H         3.750375        -2.188743        -1.693342
 H         1.644305        -3.318885         0.490706
 H         4.205140        -0.711400         0.866566
