19
Iteration:  2366
 C        -0.060256         0.251699         0.345843
 C         1.367288         0.021856         0.083292
 C         2.037532         0.739863        -1.192566
 C         3.280535        -0.089845        -1.244645
 C         2.744131        -1.511257        -1.483669
 C         2.140861        -1.348163        -0.102864
 O         1.533946        -2.419225         0.632156
 C         3.306568        -0.441309         0.404537
 O         2.493564         0.376757         1.104566
 H        -0.328084        -0.677675         0.859277
 H        -0.290214         1.037365         0.970758
 H        -0.619397         0.208336        -0.603441
 H         1.384595         0.417520        -2.024299
 H         2.166699         1.794138        -1.147707
 H         4.173441         0.267647        -1.566415
 H         2.180894        -1.723309        -2.366170
 H         3.643974        -2.188698        -1.428523
 H         1.297224        -3.178366         0.126111
 H         4.090242        -0.908810         1.022054
