19
Iteration:  3191charge 0 multiplicity 1
 C        -0.067708         0.101445         0.441331
 C         1.384456         0.038878        -0.054105
 C         2.072698         0.732127        -1.228046
 C         3.395680        -0.088591        -1.088823
 C         2.848211        -1.529296        -1.461698
 C         2.164609        -1.357871        -0.137000
 O         1.490764        -2.340612         0.552223
 C         3.248314        -0.519253         0.471268
 O         2.338077         0.480424         1.050158
 H        -0.195502        -0.568117         1.280756
 H        -0.242641         1.141699         0.704579
 H        -0.868602        -0.282269        -0.274021
 H         1.502773         0.707968        -2.218941
 H         2.243485         1.802863        -1.033370
 H         4.355018         0.259284        -1.453685
 H         2.099826        -1.685933        -2.413006
 H         3.498339        -2.378897        -1.523249
 H         1.665505        -3.121547         0.088011
 H         4.058781        -0.796035         1.232168
