19
Iteration:  1159
 C         0.013582         0.318344         0.476686
 C         1.401748         0.007568         0.016707
 C         2.037752         0.718942        -1.181265
 C         3.267126        -0.090824        -1.209934
 C         2.700929        -1.485754        -1.479310
 C         2.108810        -1.378941        -0.083085
 O         1.570831        -2.467938         0.554206
 C         3.282386        -0.505194         0.380780
 O         2.397380         0.403917         1.084178
 H        -0.471619        -0.132121         1.319851
 H        -0.065696         1.410700         0.450767
 H        -0.605669         0.112481        -0.380704
 H         1.465044         0.600302        -2.113322
 H         2.207446         1.758879        -0.827660
 H         4.133191         0.241671        -1.747389
 H         2.028317        -1.850193        -2.251312
 H         3.471760        -2.302768        -1.775711
 H         2.301494        -3.169260         0.593198
 H         4.227933        -0.818231         0.816370
