19
Iteration:  4911
 C         0.007223         0.176689         0.459765
 C         1.458178         0.111740         0.065917
 C         2.088117         0.849266        -1.163611
 C         3.375469        -0.102127        -1.120378
 C         2.794272        -1.498615        -1.495342
 C         2.072599        -1.415094        -0.139211
 O         1.287809        -2.407587         0.534703
 C         3.313887        -0.572086         0.398194
 O         2.485234         0.389713         1.067953
 H        -0.281067        -0.645670         1.144606
 H        -0.195625         1.125412         0.977177
 H        -0.446452         0.204344        -0.579838
 H         1.277976         0.800363        -1.986989
 H         2.174682         1.926034        -1.058360
 H         4.254244         0.218108        -1.800933
 H         2.170626        -1.728331        -2.301969
 H         3.551306        -2.218250        -1.556275
 H         1.496188        -3.246728        -0.013826
 H         4.244317        -0.906813         0.817644
