19
Iteration:  3101
 C         0.022757         0.322561         0.312091
 C         1.355873        -0.023777        -0.084578
 C         2.103086         0.737917        -1.224730
 C         3.339408        -0.092295        -1.094138
 C         2.741389        -1.409474        -1.472953
 C         2.068524        -1.361824        -0.089448
 O         1.721513        -2.582267         0.569220
 C         3.242407        -0.525701         0.397594
 O         2.248163         0.408060         1.110550
 H        -0.255423        -0.186029         1.226460
 H         0.022558         1.464482         0.545511
 H        -0.803968         0.126335        -0.396483
 H         1.574875         0.516329        -2.167698
 H         2.323004         1.661539        -0.657661
 H         4.215270         0.376338        -1.519533
 H         2.122244        -1.627021        -2.452457
 H         3.416923        -2.280438        -1.432040
 H         1.234914        -2.411226         1.338572
 H         4.090355        -0.793712         1.048539
