19
Iteration:  2899
 C        -0.087930         0.287859         0.448661
 C         1.374324         0.113153         0.072383
 C         2.138055         0.758261        -1.259546
 C         3.382845        -0.112512        -1.124074
 C         2.756039        -1.545921        -1.519975
 C         2.059178        -1.423121        -0.085107
 O         1.640704        -2.615611         0.492572
 C         3.291096        -0.457852         0.400892
 O         2.305857         0.452417         1.035057
 H        -0.133255        -0.139431         1.480951
 H        -0.387226         1.228141         0.690476
 H        -0.815071        -0.219947        -0.216714
 H         1.587833         0.775275        -2.207973
 H         2.246941         1.804274        -1.087620
 H         4.326808         0.281174        -1.518204
 H         2.095589        -1.651349        -2.341959
 H         3.592086        -2.244203        -1.353875
 H         1.082881        -2.435245         1.241992
 H         4.232480        -0.398738         1.004258
