19
Iteration:  1070
 C        -0.004075         0.157679         0.488469
 C         1.397285         0.070239        -0.020877
 C         1.999545         0.774139        -1.212866
 C         3.363357        -0.104613        -1.184283
 C         2.763548        -1.458417        -1.547352
 C         2.144087        -1.390228        -0.144116
 O         1.512836        -2.496122         0.580486
 C         3.267050        -0.545719         0.423955
 O         2.398910         0.450838         1.061477
 H        -0.244537        -0.485778         1.248300
 H        -0.077864         1.193034         0.625219
 H        -0.713334         0.002273        -0.347769
 H         1.379797         0.708634        -2.152560
 H         2.178041         1.807446        -0.956701
 H         4.313956         0.288481        -1.656350
 H         2.022047        -1.528197        -2.361370
 H         3.561979        -2.346854        -1.560870
 H         1.649250        -2.348854         1.571651
 H         4.107522        -0.770231         1.019632
