19
Iteration:  3747
 C        -0.102344         0.243203         0.319312
 C         1.345901        -0.075429         0.041489
 C         2.033588         0.743222        -1.240883
 C         3.375230        -0.064441        -1.164947
 C         2.958820        -1.535039        -1.446205
 C         2.168101        -1.378751        -0.117032
 O         1.422840        -2.410523         0.573792
 C         3.291682        -0.428228         0.443375
 O         2.307553         0.422656         1.139989
 H        -0.412872        -0.518217         1.159258
 H        -0.259135         1.234499         0.802171
 H        -0.605420         0.303060        -0.655894
 H         1.576686         0.614271        -2.197249
 H         2.331131         1.721117        -1.075295
 H         4.394397         0.155128        -1.668855
 H         2.567083        -1.570808        -2.542300
 H         3.644474        -2.351480        -1.301694
 H         1.904985        -3.192828         0.583282
 H         4.243796        -0.803547         0.802313
