19
Iteration:  2209charge 0 multiplicity 1
 C        -0.068609         0.250307         0.482480
 C         1.395130         0.072068         0.047370
 C         2.041028         0.763651        -1.236234
 C         3.268905        -0.198751        -1.134181
 C         2.716071        -1.507139        -1.518530
 C         2.167342        -1.376280        -0.144855
 O         1.561171        -2.397428         0.603464
 C         3.312191        -0.519364         0.340865
 O         2.410421         0.446467         1.106387
 H        -0.276960        -0.526084         1.190633
 H        -0.337055         1.220114         0.993689
 H        -0.621001         0.155580        -0.478581
 H         1.457079         0.756624        -2.171360
 H         2.391484         1.871300        -1.030585
 H         4.290505         0.161892        -1.657578
 H         2.183422        -1.639081        -2.546140
 H         3.396087        -2.409884        -1.525913
 H         1.807026        -3.293649         0.219463
 H         4.112895        -1.052566         0.952975
