19
Iteration:  2140
 C         0.011927         0.220928         0.566750
 C         1.341498         0.092283         0.022332
 C         2.074062         0.767166        -1.274496
 C         3.404642        -0.139753        -1.158746
 C         2.736877        -1.528599        -1.517091
 C         2.051474        -1.336415        -0.144801
 O         1.518372        -2.442500         0.551541
 C         3.249874        -0.561840         0.358225
 O         2.387208         0.423594         1.068204
 H        -0.219245        -0.438164         1.477975
 H        -0.098032         1.212268         0.948448
 H        -0.640142         0.159702        -0.260790
 H         1.534259         0.796346        -2.237384
 H         2.135653         1.843029        -1.070234
 H         4.169666         0.218102        -1.773767
 H         2.302463        -1.801075        -2.564488
 H         3.594667        -2.242937        -1.424299
 H         2.259332        -2.709276         1.197964
 H         3.956353        -1.064107         0.901656
