19
Iteration:  2051charge 0 multiplicity 1
 C        -0.013299         0.241947         0.450475
 C         1.494384         0.070489         0.067183
 C         2.051686         0.746035        -1.170922
 C         3.296400        -0.137651        -1.216843
 C         2.672931        -1.465982        -1.554198
 C         2.121224        -1.431542        -0.109854
 O         1.627661        -2.507177         0.593584
 C         3.241883        -0.516244         0.359795
 O         2.421205         0.412888         1.076610
 H        -0.474640        -0.073765         1.429509
 H        -0.087051         1.334190         0.448034
 H        -0.736004        -0.130068        -0.353109
 H         1.275835         0.925689        -2.011262
 H         2.411786         1.745392        -0.890889
 H         4.115859         0.279300        -1.785472
 H         1.932810        -1.551818        -2.482207
 H         3.484422        -2.292876        -1.575461
 H         0.733879        -2.197874         0.967937
 H         4.124972        -0.787647         0.963422
