19
Iteration:  4215charge 0 multiplicity 1
 C        -0.138993         0.210983         0.225757
 C         1.408335         0.042508         0.012296
 C         2.070610         0.811681        -1.204707
 C         3.363674        -0.061940        -1.218197
 C         2.856133        -1.495413        -1.467826
 C         2.150726        -1.354281        -0.089849
 O         1.449969        -2.455223         0.572563
 C         3.244558        -0.550996         0.517456
 O         2.401510         0.380698         1.156703
 H        -0.511497        -0.258209         1.200953
 H        -0.508728         1.245574         0.302377
 H        -0.608502        -0.209123        -0.616838
 H         1.708181         0.591524        -2.173806
 H         2.171542         1.856746        -0.961432
 H         4.426419         0.146103        -1.515828
 H         2.248770        -1.713275        -2.313943
 H         3.676320        -2.163128        -1.582285
 H         2.049861        -2.929720         1.105434
 H         4.192223        -0.767578         0.932417
