19
Iteration:   531charge 0 multiplicity 1
 C        -0.138788         0.140353         0.407569
 C         1.379780         0.103559        -0.006699
 C         2.054365         0.838833        -1.219029
 C         3.345319        -0.078060        -1.193956
 C         2.766125        -1.542141        -1.414695
 C         2.030803        -1.387163        -0.115922
 O         1.594974        -2.530117         0.508789
 C         3.291526        -0.492806         0.425026
 O         2.444250         0.462492         1.065971
 H        -0.261599        -0.458196         1.321655
 H        -0.243986         1.170005         0.716439
 H        -0.881812        -0.014146        -0.466399
 H         1.408313         0.902570        -2.070774
 H         2.126022         1.879328        -0.914523
 H         4.266670         0.263624        -1.678232
 H         2.269695        -1.808021        -2.339559
 H         3.593580        -2.324143        -1.273623
 H         2.114678        -2.788499         1.350096
 H         4.164883        -0.895192         0.905117
