19
Iteration:   612
 C        -0.039801         0.157523         0.470559
 C         1.293953         0.142687        -0.013255
 C         2.035159         0.838396        -1.218124
 C         3.441942        -0.150141        -1.148201
 C         2.816932        -1.539754        -1.548463
 C         2.017594        -1.436494        -0.192414
 O         1.566753        -2.470103         0.583077
 C         3.254020        -0.435632         0.418442
 O         2.371845         0.452181         1.078964
 H        -0.271573        -0.480242         1.344633
 H        -0.446399         1.195540         0.759824
 H        -0.582665        -0.325134        -0.330839
 H         1.431569         0.536821        -2.133722
 H         2.326124         1.819127        -0.839795
 H         4.387797         0.318931        -1.527328
 H         2.173541        -1.778483        -2.460783
 H         3.583884        -2.325018        -1.353633
 H         2.352812        -2.886010         0.992695
 H         4.118210        -0.865774         1.069157
