19
Iteration:  4523charge 0 multiplicity 1
 C        -0.045226         0.262812         0.256130
 C         1.429925         0.055105         0.009618
 C         2.019095         0.789316        -1.149844
 C         3.356873        -0.037437        -1.113236
 C         2.734665        -1.482045        -1.419285
 C         2.209183        -1.443732        -0.040060
 O         1.479229        -2.451392         0.531745
 C         3.261466        -0.509779         0.497968
 O         2.432079         0.379072         1.067666
 H        -0.257688         0.281216         1.323671
 H        -0.192508         1.246341        -0.188823
 H        -0.775909        -0.389999        -0.345228
 H         1.505754         0.622191        -2.068677
 H         1.991986         1.784653        -0.865330
 H         4.292713         0.163137        -1.611797
 H         2.101810        -1.831103        -2.312394
 H         3.506918        -2.238878        -1.472739
 H         1.398150        -3.256729        -0.037262
 H         4.193344        -0.994617         0.842875
