19
Iteration:  3393charge 0 multiplicity 1
 C         0.054008         0.342563         0.388979
 C         1.380839        -0.009735        -0.009191
 C         2.037143         0.772918        -1.181727
 C         3.311781        -0.073961        -1.122989
 C         2.816347        -1.513711        -1.515699
 C         2.088121        -1.428808        -0.141988
 O         1.707509        -2.533593         0.532270
 C         3.154881        -0.558982         0.489405
 O         2.278333         0.411151         1.063716
 H        -0.085123         0.013129         1.383647
 H         0.005179         1.459673         0.497720
 H        -0.708502         0.240535        -0.345405
 H         1.530327         0.560370        -2.124218
 H         2.150035         1.904126        -1.112992
 H         4.295759         0.304755        -1.312428
 H         2.205791        -1.568811        -2.373292
 H         3.707927        -2.208291        -1.289884
 H         0.840861        -2.394051         0.808702
 H         4.103216        -0.890869         0.789561
