19
Iteration:  4999
 C         0.013886         0.415439         0.423764
 C         1.479742         0.086068         0.087705
 C         2.126025         0.788127        -1.053928
 C         3.326973        -0.140629        -1.168615
 C         2.694708        -1.491103        -1.563723
 C         2.050379        -1.283728        -0.170026
 O         1.549703        -2.529240         0.427494
 C         3.245006        -0.570845         0.353895
 O         2.389262         0.238922         1.133245
 H        -0.237964         0.483722         1.499878
 H        -0.457167         1.361714         0.067074
 H        -0.665973        -0.428128        -0.062700
 H         1.422595         0.620748        -2.017502
 H         2.446677         1.774957        -0.666925
 H         4.269156         0.353220        -1.636746
 H         2.058452        -1.752159        -2.411354
 H         3.435580        -2.293314        -1.471735
 H         1.198525        -2.379606         1.392918
 H         4.204350        -0.909456         0.760784
