19
Iteration:  3849
 C        -0.102191         0.296907         0.291173
 C         1.400268         0.009655         0.005000
 C         2.035677         0.664035        -1.157895
 C         3.368155        -0.096428        -1.133390
 C         2.932971        -1.489215        -1.525371
 C         2.091808        -1.388424        -0.102682
 O         1.470374        -2.444612         0.526726
 C         3.310010        -0.463664         0.414192
 O         2.329243         0.387887         1.161104
 H        -0.378005        -0.046168         1.288507
 H        -0.268789         1.374771         0.150013
 H        -0.712058        -0.221909        -0.468314
 H         1.467345         0.578577        -2.086672
 H         1.936879         1.717635        -1.023755
 H         4.316706         0.340136        -1.546374
 H         2.502104        -1.559475        -2.567388
 H         3.654107        -2.297213        -1.297183
 H         2.130000        -2.867094         1.191472
 H         4.046506        -0.672609         1.202632
