19
Iteration:  1709
 C         0.082679         0.225195         0.596662
 C         1.466923         0.099294         0.098991
 C         1.948778         0.793661        -1.182999
 C         3.238674        -0.085591        -1.237485
 C         2.775751        -1.482422        -1.530624
 C         2.055318        -1.371622        -0.190358
 O         1.426988        -2.413647         0.549689
 C         3.304877        -0.594782         0.217958
 O         2.498579         0.318437         1.098009
 H         0.082424        -0.266462         1.586340
 H        -0.244002         1.301289         0.677931
 H        -0.739375        -0.078506        -0.120506
 H         1.393437         0.495628        -2.135056
 H         2.217063         1.875497        -1.033063
 H         4.278182         0.162968        -1.692960
 H         2.083950        -1.652943        -2.324868
 H         3.756879        -2.043670        -1.417692
 H         1.656155        -2.287186         1.490044
 H         4.161483        -1.155211         0.674811
