19
Iteration:  3125charge 0 multiplicity 1
 C        -0.136755         0.285996         0.314094
 C         1.408567         0.090137         0.031569
 C         2.087504         0.812313        -1.238619
 C         3.312303        -0.087023        -1.103097
 C         2.799004        -1.568644        -1.511246
 C         2.159183        -1.432108        -0.146036
 O         1.594889        -2.498320         0.552808
 C         3.298784        -0.507727         0.486273
 O         2.313172         0.400103         1.083161
 H        -0.513954        -0.387070         0.998630
 H        -0.411831         1.271173         0.686261
 H        -0.774459         0.118209        -0.601108
 H         1.384836         0.489928        -1.987162
 H         2.366394         1.772211        -0.897727
 H         4.212575         0.368737        -1.386944
 H         2.117468        -1.705212        -2.449755
 H         3.556403        -2.279281        -1.672449
 H         2.031444        -2.541697         1.481065
 H         4.292781        -0.817641         0.995938
