19
Iteration:  3168charge 0 multiplicity 1
 C        -0.002969         0.080525         0.353557
 C         1.430205         0.061642         0.023415
 C         2.043090         0.749168        -1.211603
 C         3.361468        -0.063871        -1.141985
 C         2.846573        -1.486559        -1.509084
 C         2.161523        -1.408342        -0.077482
 O         1.363850        -2.379067         0.599912
 C         3.310252        -0.462087         0.430841
 O         2.331838         0.434892         1.087425
 H        -0.259823        -0.718496         0.994803
 H        -0.217698         1.089120         0.807482
 H        -0.674112        -0.062853        -0.547649
 H         1.695000         0.633677        -2.297331
 H         2.236233         1.833671        -1.096205
 H         4.228255         0.368252        -1.562586
 H         2.241450        -1.732701        -2.483313
 H         3.599293        -2.262232        -1.504432
 H         1.848794        -3.285794         0.630229
 H         4.295305        -0.559103         0.996641
