19
Iteration:  1894
 C         0.072085         0.240336         0.454697
 C         1.518356         0.030429         0.091704
 C         1.962961         0.760968        -1.149154
 C         3.241211        -0.045041        -1.230566
 C         2.671524        -1.494824        -1.626175
 C         2.130758        -1.409037        -0.089416
 O         1.469520        -2.436042         0.561791
 C         3.282621        -0.528018         0.315295
 O         2.470087         0.338299         1.106438
 H        -0.160740        -0.166022         1.440856
 H        -0.108536         1.335090         0.464057
 H        -0.677052        -0.130988        -0.229142
 H         1.391182         0.559137        -1.985847
 H         2.252593         1.759844        -0.882500
 H         4.190570         0.343753        -1.528534
 H         1.998775        -1.824498        -2.460207
 H         3.649262        -2.100371        -1.574997
 H         1.535018        -2.344710         1.561727
 H         4.274610        -0.695024         0.642293
