19
Iteration:  3692
 C        -0.145386         0.303566         0.288024
 C         1.328702         0.022352         0.023923
 C         2.153253         0.723207        -1.193028
 C         3.420390        -0.100020        -1.174017
 C         2.801130        -1.508224        -1.511261
 C         2.140299        -1.376144        -0.089363
 O         1.577528        -2.536281         0.527714
 C         3.212365        -0.450257         0.502913
 O         2.321412         0.453722         1.096749
 H        -0.441068        -0.499704         1.050068
 H        -0.459357         1.283774         0.657222
 H        -0.790164        -0.100076        -0.530222
 H         1.647102         0.541004        -2.119885
 H         2.377043         1.716081        -0.963639
 H         4.469018         0.211148        -1.488819
 H         2.170453        -1.646318        -2.446884
 H         3.579200        -2.275111        -1.454001
 H         1.988205        -2.704786         1.410983
 H         4.078535        -0.741810         1.064716
