19
Iteration:   159charge 0 multiplicity 1
 C        -0.060648         0.190539         0.321713
 C         1.439947         0.050460         0.044541
 C         2.024260         0.694331        -1.209196
 C         3.338111        -0.068088        -1.122336
 C         2.802507        -1.465352        -1.505504
 C         2.082823        -1.338814        -0.124853
 O         1.592186        -2.430892         0.633893
 C         3.289064        -0.477109         0.408485
 O         2.299689         0.389367         1.130114
 H        -0.387661        -0.562220         1.051168
 H        -0.318842         1.206833         0.668975
 H        -0.583507         0.120860        -0.688297
 H         1.553953         0.429670        -2.252786
 H         2.130527         1.809621        -1.150725
 H         4.321835         0.301241        -1.572640
 H         2.276019        -1.698689        -2.444844
 H         3.708236        -2.128817        -1.378607
 H         1.814041        -3.236067         0.089535
 H         4.153251        -0.769816         1.051947
