19
Iteration:  4854
 C         0.017834         0.333982         0.418038
 C         1.388897         0.121073         0.019196
 C         2.158199         0.798063        -1.221017
 C         3.361217        -0.099526        -1.115478
 C         2.715276        -1.507581        -1.563294
 C         2.031228        -1.397952        -0.132644
 O         1.542480        -2.515249         0.592308
 C         3.209598        -0.569364         0.386111
 O         2.403690         0.373189         1.148913
 H        -0.449395        -0.606328         0.761243
 H        -0.072774         1.085277         1.224951
 H        -0.636051         0.668925        -0.314364
 H         1.496771         0.835251        -2.125050
 H         2.503041         1.733929        -0.756839
 H         4.248413         0.252706        -1.706534
 H         2.193808        -1.647081        -2.436591
 H         3.436450        -2.237510        -1.403856
 H         1.325403        -3.189343        -0.013821
 H         4.163290        -0.932332         0.767700
