19
Iteration:  1793
 C         0.003185         0.371088         0.483920
 C         1.451466         0.046591         0.104326
 C         1.975090         0.729555        -1.075568
 C         3.202680        -0.070875        -1.299545
 C         2.705615        -1.502493        -1.611542
 C         2.098039        -1.384990        -0.199331
 O         1.568117        -2.422423         0.695134
 C         3.314399        -0.551680         0.310800
 O         2.506076         0.330621         1.107525
 H        -0.474548        -0.432809         1.061807
 H        -0.153785         1.388631         0.919446
 H        -0.557427         0.177772        -0.374114
 H         1.421447         0.654839        -1.986318
 H         2.271075         1.825432        -0.960292
 H         4.242423         0.286131        -1.566685
 H         1.994222        -1.666572        -2.485148
 H         3.211545        -2.476490        -1.495074
 H         1.508486        -3.212572         0.091413
 H         4.283591        -0.884139         0.744259
