19
Iteration:  4043charge 0 multiplicity 1
 C         0.011126         0.265087         0.239244
 C         1.388273         0.060129         0.001148
 C         2.051412         0.745550        -1.150903
 C         3.289096        -0.059534        -1.125012
 C         2.925222        -1.533646        -1.492817
 C         2.138299        -1.374546        -0.147267
 O         1.439265        -2.476829         0.546675
 C         3.229261        -0.469350         0.417652
 O         2.352485         0.361358         1.165234
 H        -0.294016         0.156147         1.277609
 H        -0.220055         1.213379        -0.096816
 H        -0.474122        -0.529970        -0.219878
 H         1.335900         0.501296        -1.965978
 H         2.196104         1.794741        -1.073885
 H         4.257024         0.404199        -1.573900
 H         2.315433        -1.651596        -2.399081
 H         3.690464        -2.191005        -1.316008
 H         2.027362        -2.905788         1.270551
 H         4.033339        -0.713717         1.141778
