19
Iteration:  3794
 C        -0.088070         0.048564         0.330332
 C         1.433884         0.060188        -0.040816
 C         2.153882         0.715576        -1.217149
 C         3.410255        -0.129476        -1.124868
 C         2.787102        -1.486575        -1.480578
 C         2.132838        -1.356901        -0.068268
 O         1.451463        -2.426445         0.563250
 C         3.243547        -0.436280         0.454672
 O         2.337931         0.530212         1.115919
 H        -0.270182        -0.400220         1.335452
 H        -0.468611         1.067730         0.406773
 H        -0.647540        -0.272366        -0.528888
 H         1.688340         0.761000        -2.243966
 H         2.271935         1.752770        -0.780441
 H         4.467012         0.137001        -1.421051
 H         2.018444        -1.629216        -2.329840
 H         3.555330        -2.262413        -1.572608
 H         1.774995        -3.279784         0.160388
 H         4.029562        -0.672032         1.212240
