19
Iteration:  3362charge 0 multiplicity 1
 C        -0.113304         0.263597         0.384734
 C         1.334567         0.035304         0.082696
 C         2.095677         0.751777        -1.176687
 C         3.333479        -0.092824        -1.137535
 C         2.818675        -1.537662        -1.494619
 C         2.127853        -1.413334        -0.082491
 O         1.580429        -2.547798         0.504340
 C         3.328069        -0.424820         0.379121
 O         2.355678         0.433923         1.089863
 H        -0.462005        -0.467165         1.034455
 H        -0.214216         1.282206         0.864247
 H        -0.602379         0.226330        -0.620584
 H         1.547909         0.508099        -2.118432
 H         2.427898         1.851343        -0.971893
 H         4.271515         0.250065        -1.429438
 H         2.283796        -1.593791        -2.440333
 H         3.590532        -2.435521        -1.462382
 H         0.629256        -2.410050         0.857089
 H         4.386779        -0.543650         0.659871
