19
Iteration:  4411
 C        -0.026769         0.094564         0.223560
 C         1.449073         0.030844         0.043923
 C         2.117409         0.799080        -1.206983
 C         3.391181        -0.037131        -1.167105
 C         2.697425        -1.548951        -1.426816
 C         2.105458        -1.299737        -0.097327
 O         1.481718        -2.415967         0.603129
 C         3.316257        -0.479426         0.425043
 O         2.406894         0.350974         1.152450
 H        -0.515169        -0.905818         0.571374
 H        -0.354708         0.999722         0.771623
 H        -0.544030         0.270198        -0.722191
 H         1.540358         0.636316        -2.094482
 H         2.070146         1.890146        -1.000575
 H         4.353134         0.241828        -1.744204
 H         2.080519        -1.611284        -2.318008
 H         3.691066        -2.176430        -1.502005
 H         0.640977        -2.248866         0.978940
 H         4.160935        -0.932239         0.788144
