19
Iteration:   415charge 0 multiplicity 1
 C        -0.046399         0.154318         0.440134
 C         1.410641         0.036345        -0.022389
 C         2.123843         0.741528        -1.153591
 C         3.395114        -0.098517        -1.159604
 C         2.702545        -1.476029        -1.567791
 C         2.131512        -1.378128        -0.131657
 O         1.614397        -2.506880         0.563528
 C         3.227169        -0.476870         0.406756
 O         2.288058         0.436487         1.086782
 H        -0.137612        -0.414394         1.398184
 H        -0.309234         1.231372         0.623298
 H        -0.756804        -0.095996        -0.295234
 H         1.542012         0.549562        -2.129416
 H         2.193339         1.899897        -1.052322
 H         4.250108         0.269114        -1.636887
 H         2.196720        -1.320959        -2.523118
 H         3.482557        -2.214265        -1.765173
 H         1.547099        -2.230889         1.546756
 H         4.153758        -0.749747         1.024206
