19
Iteration:  1870
 C        -0.012561         0.238762         0.590367
 C         1.465387         0.087096         0.052707
 C         1.999735         0.723047        -1.196299
 C         3.295492        -0.055530        -1.254528
 C         2.645702        -1.576483        -1.528625
 C         2.106677        -1.376921        -0.075967
 O         1.530628        -2.506247         0.469339
 C         3.314432        -0.472156         0.367713
 O         2.531669         0.412189         1.077457
 H        -0.241781        -0.241224         1.590986
 H        -0.309666         1.361851         0.578979
 H        -0.725445        -0.163395        -0.119708
 H         1.502666         0.601331        -2.130136
 H         2.264625         1.759190        -0.801228
 H         4.223860         0.278521        -1.760458
 H         2.045211        -1.542968        -2.450003
 H         3.443449        -2.335305        -1.580993
 H         0.757205        -2.387160         0.991262
 H         4.208464        -0.808044         0.804619
