19
Iteration:   891
 C        -0.068792         0.164795         0.396687
 C         1.370815         0.058081        -0.072743
 C         2.090214         0.790328        -1.242859
 C         3.416624        -0.102589        -1.128771
 C         2.761709        -1.433313        -1.459736
 C         2.070574        -1.379148        -0.057731
 O         1.573177        -2.427924         0.645140
 C         3.229468        -0.499419         0.334428
 O         2.337083         0.367679         1.060081
 H        -0.269443        -0.462303         1.285509
 H        -0.276669         1.160690         0.762845
 H        -0.719650        -0.192152        -0.310049
 H         1.472877         0.834135        -2.184271
 H         2.437736         1.834867        -0.958158
 H         4.236010         0.223470        -1.679414
 H         2.051047        -1.540661        -2.283296
 H         3.572137        -2.209845        -1.343240
 H         2.268072        -3.163445         0.571331
 H         4.145501        -0.867128         0.964838
