19
Iteration:   519charge 0 multiplicity 1
 C        -0.101465         0.215426         0.497533
 C         1.357005         0.095994         0.011456
 C         2.085838         0.851807        -1.146161
 C         3.346242        -0.103522        -1.188661
 C         2.839129        -1.606128        -1.461266
 C         2.117380        -1.386051        -0.143822
 O         1.576942        -2.556512         0.518037
 C         3.211912        -0.479942         0.297442
 O         2.336593         0.479843         1.048670
 H        -0.247381        -0.519862         1.299273
 H        -0.443276         1.187402         0.836558
 H        -0.859753        -0.203888        -0.286462
 H         1.652805         0.821793        -2.120134
 H         2.573028         1.790523        -0.902975
 H         4.333660         0.334518        -1.566620
 H         2.245089        -1.946312        -2.321938
 H         3.729015        -2.257792        -1.274481
 H         1.989475        -2.496131         1.371114
 H         4.066611        -0.699065         0.831642
