19
Iteration:  2822
 C        -0.014245         0.149532         0.393045
 C         1.397415         0.036583        -0.045579
 C         2.109449         0.837499        -1.167342
 C         3.332170        -0.148693        -1.144375
 C         2.738302        -1.505818        -1.517738
 C         2.104335        -1.345383        -0.063199
 O         1.581881        -2.453635         0.539984
 C         3.261291        -0.499315         0.442802
 O         2.309663         0.422249         1.031548
 H        -0.146325        -0.466469         1.317442
 H        -0.342862         1.117271         0.608481
 H        -0.662115        -0.101277        -0.525011
 H         1.650301         0.596105        -2.170784
 H         2.351579         1.848090        -0.855472
 H         4.162651         0.374178        -1.735083
 H         2.147500        -1.630480        -2.429677
 H         3.521535        -2.318179        -1.439181
 H         1.721762        -2.396428         1.549400
 H         4.118298        -0.977557         1.098756
