19
Iteration:  2270charge 0 multiplicity 1
 C        -0.065005         0.284657         0.406075
 C         1.414829         0.038931         0.058892
 C         1.962452         0.737138        -1.172986
 C         3.328945        -0.124248        -1.200535
 C         2.736233        -1.464713        -1.545312
 C         2.206651        -1.402246        -0.080914
 O         1.551582        -2.461352         0.608086
 C         3.349061        -0.497493         0.358675
 O         2.469728         0.402141         1.107397
 H        -0.411663        -0.090529         1.462831
 H        -0.486261         1.319833         0.353841
 H        -0.634676        -0.368693        -0.346678
 H         1.336869         0.385852        -2.031124
 H         2.095942         1.765329        -0.909220
 H         4.134318         0.325466        -1.711999
 H         2.147108        -1.619697        -2.438403
 H         3.433359        -2.330908        -1.429652
 H         0.658233        -2.516804         0.162528
 H         4.136257        -0.950394         0.900201
