19
Iteration:  3340charge 0 multiplicity 1
 C         0.020662         0.138710         0.307370
 C         1.401407         0.047966         0.027250
 C         1.971513         0.760628        -1.179197
 C         3.350556        -0.091228        -1.198502
 C         2.793591        -1.496988        -1.446507
 C         2.117846        -1.334578        -0.113022
 O         1.530299        -2.460870         0.486599
 C         3.285578        -0.514592         0.526358
 O         2.409468         0.448633         1.092737
 H        -0.248515        -0.673150         0.899264
 H        -0.168110         1.069140         0.937766
 H        -0.532284         0.201132        -0.672187
 H         1.495578         0.495809        -2.144299
 H         2.155906         1.869237        -0.844891
 H         4.160670         0.292971        -1.743230
 H         2.086621        -1.741690        -2.211655
 H         3.656349        -2.336224        -1.436756
 H         0.930469        -2.193693         1.143953
 H         4.071982        -1.069624         1.055627
