19
Iteration:  4050charge 0 multiplicity 1
 C        -0.033367         0.259565         0.255495
 C         1.419135         0.054818         0.008385
 C         2.039179         0.758725        -1.139802
 C         3.335005        -0.051685        -1.148050
 C         2.889431        -1.556871        -1.512589
 C         2.149834        -1.393947        -0.146215
 O         1.416033        -2.472276         0.577543
 C         3.251040        -0.444774         0.378470
 O         2.333017         0.395102         1.191323
 H        -0.309831         0.077878         1.306149
 H        -0.438825         1.241946        -0.140189
 H        -0.388427        -0.642561        -0.355536
 H         1.560239         0.449049        -2.106695
 H         2.241087         1.885873        -0.900972
 H         4.332435         0.428128        -1.173751
 H         2.429121        -1.721868        -2.527163
 H         3.668217        -2.419086        -1.433453
 H         2.102227        -2.879544         1.125569
 H         4.139645        -0.856343         0.898677
