19
Iteration:  2170charge 0 multiplicity 1
 C         0.027801         0.291595         0.471158
 C         1.418770         0.049209         0.057269
 C         1.925902         0.712400        -1.227132
 C         3.299110        -0.082214        -1.191270
 C         2.782172        -1.531280        -1.513403
 C         2.189232        -1.427838        -0.027721
 O         1.389046        -2.467574         0.522780
 C         3.338705        -0.464611         0.368824
 O         2.459557         0.397370         1.088123
 H        -0.536717        -0.487334         0.975055
 H         0.035722         1.261623         0.943777
 H        -0.680791         0.390214        -0.417354
 H         1.400683         0.628456        -2.209874
 H         2.026737         1.792762        -1.110069
 H         4.123304         0.224526        -1.764260
 H         2.138234        -1.590954        -2.331515
 H         3.716900        -2.073967        -1.503497
 H         1.965981        -3.030166         0.997848
 H         4.382630        -0.726091         0.735876
