19
Iteration:  1520
 C         0.020212         0.306085         0.532372
 C         1.453854         0.029867         0.054058
 C         2.039662         0.742227        -1.164109
 C         3.273407        -0.028986        -1.236350
 C         2.679130        -1.543035        -1.587803
 C         2.094935        -1.419405        -0.124033
 O         1.443070        -2.459555         0.696319
 C         3.364415        -0.478642         0.300487
 O         2.502153         0.344746         1.063639
 H        -0.121267        -0.348833         1.449054
 H        -0.266060         1.399536         0.592735
 H        -0.588801        -0.016688        -0.318616
 H         1.330415         0.690304        -1.986414
 H         2.284510         1.827080        -0.887166
 H         4.133260         0.417738        -1.626387
 H         1.919034        -1.608915        -2.293946
 H         3.584928        -2.136473        -1.701249
 H         1.062452        -3.082925        -0.005731
 H         4.368724        -0.768809         0.671226
