19
Iteration:  3508
 C        -0.037386         0.200331         0.366204
 C         1.457047        -0.011192         0.015687
 C         2.106483         0.806696        -1.173794
 C         3.379495        -0.103940        -1.110674
 C         2.793793        -1.532524        -1.463760
 C         2.076333        -1.348541        -0.186553
 O         1.479359        -2.439356         0.584273
 C         3.252430        -0.481706         0.389144
 O         2.290081         0.400103         1.057515
 H        -0.246684        -0.533413         1.150953
 H        -0.182850         1.152354         0.748717
 H        -0.557541         0.120222        -0.557352
 H         1.662967         0.538623        -2.184366
 H         2.322030         1.775817        -0.797656
 H         4.157930         0.497914        -1.672206
 H         2.375278        -1.598014        -2.504486
 H         3.631216        -2.085390        -1.277584
 H         2.118921        -2.707301         1.188674
 H         3.993861        -1.046926         0.940169
