19
Iteration:   631
 C        -0.053700         0.188774         0.455722
 C         1.406603        -0.032662         0.021764
 C         2.073431         0.722657        -1.229055
 C         3.311006        -0.063025        -1.146994
 C         2.785954        -1.456518        -1.487714
 C         2.169259        -1.372881        -0.041303
 O         1.510184        -2.466446         0.497661
 C         3.267095        -0.458674         0.448003
 O         2.328593         0.477734         1.027757
 H        -0.087027        -0.402824         1.472404
 H        -0.149638         1.281852         0.769831
 H        -0.856665        -0.244330        -0.304322
 H         1.643424         0.375529        -2.323075
 H         2.220193         1.827364        -1.233877
 H         4.212017         0.232235        -1.526116
 H         2.104276        -1.407807        -2.338530
 H         3.551756        -2.358741        -1.566224
 H         2.058295        -3.143396         0.833646
 H         4.294710        -0.830951         0.903733
