19
Iteration:   598
 C        -0.057606         0.155460         0.399793
 C         1.434120         0.087452         0.018576
 C         2.056187         0.868297        -1.139051
 C         3.293591        -0.099450        -1.168275
 C         2.834539        -1.575146        -1.496594
 C         2.074550        -1.338709        -0.167964
 O         1.577358        -2.442930         0.620982
 C         3.175675        -0.544928         0.322446
 O         2.359642         0.413960         1.066140
 H        -0.139345        -0.530220         1.331291
 H        -0.411145         1.190155         0.623133
 H        -0.771617        -0.250712        -0.447690
 H         1.498076         0.885641        -2.167385
 H         2.234446         1.963171        -0.913300
 H         4.175673         0.219089        -1.585922
 H         2.502524        -1.774931        -2.507899
 H         3.676111        -2.354789        -1.226960
 H         2.341205        -2.727449         1.113318
 H         4.096916        -0.953512         0.898898
