19
Iteration:   610charge 0 multiplicity 1
 C        -0.034503         0.163073         0.460230
 C         1.302374         0.133876        -0.007260
 C         2.028642         0.863316        -1.188441
 C         3.433182        -0.146942        -1.156004
 C         2.820462        -1.554484        -1.555340
 C         2.003871        -1.425317        -0.197424
 O         1.573872        -2.464947         0.591629
 C         3.247752        -0.443139         0.410198
 O         2.369044         0.448285         1.076279
 H        -0.232391        -0.527403         1.383904
 H        -0.446695         1.199186         0.744949
 H        -0.597429        -0.361686        -0.428622
 H         1.421891         0.584656        -2.180951
 H         2.339935         1.903070        -0.906058
 H         4.324934         0.252928        -1.491680
 H         2.248583        -1.817691        -2.472650
 H         3.627142        -2.381283        -1.292244
 H         2.389625        -2.901282         1.050714
 H         4.143861        -0.925147         1.050528
