19
Iteration:  3398
 C         0.060745         0.357988         0.381971
 C         1.419716        -0.004437         0.006943
 C         2.023738         0.749127        -1.176731
 C         3.300079        -0.136016        -1.071076
 C         2.855328        -1.504674        -1.525393
 C         2.040968        -1.366264        -0.158374
 O         1.719693        -2.531196         0.529020
 C         3.167055        -0.527560         0.441716
 O         2.273846         0.384779         1.076822
 H        -0.224588         0.033194         1.450116
 H         0.033111         1.447808         0.445764
 H        -0.831410         0.131095        -0.290484
 H         1.676740         0.657961        -2.267145
 H         2.056439         1.844837        -1.110675
 H         4.228420         0.443126        -1.317739
 H         2.091575        -1.736619        -2.358164
 H         3.659125        -2.217397        -1.420850
 H         0.745404        -2.418610         0.859282
 H         4.196426        -0.835666         0.866996
