19
Iteration:   481
 C        -0.012337         0.254581         0.394202
 C         1.386923        -0.015871         0.014090
 C         2.014044         0.690282        -1.227905
 C         3.330673         0.008741        -1.130110
 C         2.788370        -1.444226        -1.489592
 C         2.211785        -1.418393        -0.091343
 O         1.573310        -2.490484         0.537247
 C         3.285378        -0.456451         0.373970
 O         2.360908         0.364339         1.100023
 H        -0.289675        -0.249229         1.372782
 H        -0.013001         1.365552         0.612792
 H        -0.707134        -0.036278        -0.349216
 H         1.561452         0.194876        -2.154615
 H         1.622259         1.809759        -1.191609
 H         4.238358         0.431425        -1.534807
 H         2.009375        -1.533298        -2.271897
 H         3.443097        -2.318035        -1.455954
 H         0.913105        -2.189608         1.144679
 H         4.160054        -1.048959         0.850320
