19
Iteration:   564
 C        -0.012496         0.169440         0.287179
 C         1.453947         0.022887         0.084174
 C         2.009739         0.749913        -1.179970
 C         3.324771        -0.045004        -1.163377
 C         2.735758        -1.513829        -1.599035
 C         2.230667        -1.425939        -0.105208
 O         1.467969        -2.447475         0.608881
 C         3.353105        -0.429962         0.382667
 O         2.344861         0.396503         1.143927
 H        -0.500233        -0.374850         1.160012
 H        -0.118526         1.210075         0.594683
 H        -0.744777        -0.007399        -0.648186
 H         1.296186         0.349217        -1.922527
 H         1.840363         1.787978        -0.878525
 H         4.192983         0.371776        -1.650932
 H         2.040629        -1.342213        -2.398822
 H         3.434902        -2.435064        -1.793487
 H         2.060684        -2.676637         1.379053
 H         4.282255        -0.563697         0.978342
