19
Iteration:   943
 C        -0.021799         0.201533         0.404791
 C         1.434125        -0.049092        -0.027661
 C         2.017517         0.761774        -1.221795
 C         3.347176         0.050343        -1.152895
 C         2.727027        -1.504773        -1.438808
 C         2.161189        -1.419196        -0.065321
 O         1.449237        -2.528810         0.503492
 C         3.368447        -0.421100         0.415175
 O         2.400664         0.391904         1.059927
 H        -0.446970        -0.210696         1.360356
 H        -0.205455         1.344070         0.512701
 H        -0.612689        -0.189302        -0.454588
 H         1.319047         0.432503        -2.008781
 H         2.029510         1.881992        -0.987108
 H         4.112127         0.375353        -1.829886
 H         2.237109        -2.020564        -2.407444
 H         3.598567        -2.146076        -1.326421
 H         1.623432        -2.354605         1.492655
 H         4.277889        -0.525504         1.007042
