19
Iteration:  3988charge 0 multiplicity 1
 C         0.006469         0.271767         0.365774
 C         1.395384         0.091380        -0.013339
 C         2.118187         0.770229        -1.224929
 C         3.320401        -0.118847        -1.112513
 C         2.831327        -1.500732        -1.462161
 C         2.089733        -1.405458        -0.110014
 O         1.618244        -2.594875         0.493540
 C         3.237657        -0.562440         0.477431
 O         2.269458         0.517385         1.070727
 H        -0.220667        -0.363943         1.261702
 H        -0.400528         1.235802         0.473336
 H        -0.537111        -0.063847        -0.486444
 H         1.526837         0.809942        -2.127890
 H         2.180042         1.804109        -1.095113
 H         4.391478         0.202122        -1.456509
 H         2.229781        -1.744867        -2.408549
 H         3.551698        -2.189605        -1.244945
 H         0.949570        -2.351167         1.168737
 H         4.072831        -0.817577         1.180166
