19
Iteration:  1296charge 0 multiplicity 1
 C         0.000996         0.402237         0.525754
 C         1.386242         0.086378         0.006754
 C         2.039757         0.807501        -1.210008
 C         3.341405        -0.131487        -1.210491
 C         2.695237        -1.550368        -1.538698
 C         2.142845        -1.413340        -0.109936
 O         1.600653        -2.495399         0.637980
 C         3.294845        -0.476404         0.366969
 O         2.354447         0.307711         1.067365
 H         0.029410        -0.018550         1.547467
 H        -0.155415         1.456631         0.800120
 H        -0.841290        -0.092442        -0.071776
 H         1.440691         0.599597        -2.109798
 H         2.108752         1.848445        -1.070172
 H         4.273668         0.265960        -1.775397
 H         2.072566        -1.531424        -2.453856
 H         3.266433        -2.395126        -1.717080
 H         1.514006        -3.164265        -0.011804
 H         4.131021        -0.827086         0.958712
