19
Iteration:   947
 C        -0.029768         0.198580         0.420542
 C         1.442665        -0.042061        -0.003425
 C         1.979697         0.775152        -1.223973
 C         3.379289         0.019563        -1.141709
 C         2.712613        -1.511751        -1.460701
 C         2.140401        -1.408992        -0.098235
 O         1.479920        -2.525028         0.506770
 C         3.357959        -0.412196         0.420012
 O         2.392785         0.395674         1.055574
 H        -0.399322        -0.207605         1.358430
 H        -0.159230         1.236550         0.415937
 H        -0.603990        -0.060089        -0.413126
 H         1.335990         0.441563        -2.099483
 H         2.112838         1.869561        -0.939451
 H         4.141676         0.453754        -1.790073
 H         2.363620        -2.135181        -2.269148
 H         3.616719        -2.249582        -1.424490
 H         1.403068        -2.323919         1.467520
 H         4.364858        -0.543525         1.081103
