19
Iteration:   457
 C        -0.074616         0.247429         0.303101
 C         1.385530         0.065607         0.152921
 C         1.986247         0.756651        -1.101830
 C         3.237808        -0.122861        -1.255337
 C         2.850905        -1.495337        -1.531985
 C         2.159234        -1.422150        -0.137018
 O         1.599949        -2.565206         0.520632
 C         3.305734        -0.457205         0.411093
 O         2.445888         0.469408         1.127484
 H        -0.398752        -0.320061         1.203877
 H        -0.260161         1.308303         0.486490
 H        -0.588727        -0.121782        -0.562821
 H         1.275907         0.598172        -1.961894
 H         2.161484         1.851574        -0.980865
 H         4.018797         0.288188        -1.700301
 H         2.234330        -1.787967        -2.334641
 H         3.497001        -2.320215        -1.166100
 H         0.782666        -2.308736         0.930255
 H         4.278584        -0.688529         0.964529
