19
Iteration:  3617charge 0 multiplicity 1
 C        -0.006677         0.156676         0.336669
 C         1.404035         0.042207        -0.050854
 C         2.114284         0.751767        -1.217818
 C         3.410096        -0.086842        -1.102861
 C         2.807248        -1.500153        -1.444606
 C         2.083381        -1.371037        -0.174644
 O         1.574508        -2.401977         0.616525
 C         3.202694        -0.531422         0.452744
 O         2.323737         0.411098         1.124238
 H        -0.236692        -0.245178         1.341600
 H        -0.229818         1.158326         0.327392
 H        -0.675571        -0.409425        -0.225559
 H         1.615056         0.639356        -2.259040
 H         1.973546         1.823100        -0.903569
 H         4.222576         0.464010        -1.675636
 H         2.272436        -1.661841        -2.443508
 H         3.636985        -2.180204        -1.364074
 H         0.712357        -2.614998         0.138372
 H         4.096206        -0.817680         0.976161
