19
Iteration:   157charge 0 multiplicity 1
 C        -0.065898         0.190723         0.307780
 C         1.439807         0.050494         0.041183
 C         2.027045         0.711659        -1.213261
 C         3.315717        -0.073434        -1.123567
 C         2.800634        -1.486666        -1.488242
 C         2.096187        -1.345773        -0.123486
 O         1.599237        -2.433150         0.628451
 C         3.286853        -0.484323         0.414379
 O         2.298619         0.397355         1.131823
 H        -0.322658        -0.573929         1.048878
 H        -0.296954         1.215610         0.681799
 H        -0.543380         0.122223        -0.648451
 H         1.554165         0.472006        -2.210275
 H         2.172251         1.803294        -1.139115
 H         4.346755         0.367202        -1.580840
 H         2.219661        -1.653477        -2.449582
 H         3.679478        -2.119974        -1.400066
 H         1.787574        -3.242454         0.056161
 H         4.163300        -0.731359         1.051408
