19
Iteration:  1443charge 0 multiplicity 1
 C         0.059761         0.326654         0.453643
 C         1.428127         0.049625         0.075235
 C         1.970767         0.745036        -1.127858
 C         3.235408        -0.091731        -1.193300
 C         2.669627        -1.556699        -1.538267
 C         2.124189        -1.420534        -0.108418
 O         1.580403        -2.549089         0.477891
 C         3.288464        -0.533925         0.366874
 O         2.486493         0.439779         1.066526
 H        -0.263552        -0.218929         1.406216
 H         0.231465         1.435378         0.659136
 H        -0.779002         0.161853        -0.299268
 H         1.466106         0.658341        -2.091308
 H         2.250133         1.782544        -0.726963
 H         3.923707         0.409849        -1.752814
 H         2.012947        -1.587647        -2.327364
 H         3.210031        -2.534661        -1.608513
 H         1.253010        -2.119764         1.323119
 H         4.249745        -0.633561         0.906064
