19
Iteration:  4813charge 0 multiplicity 1
 C        -0.001203         0.555150         0.366408
 C         1.395483         0.049162         0.046245
 C         2.038297         0.733659        -1.195190
 C         3.282017        -0.120909        -1.141609
 C         2.747244        -1.497149        -1.517434
 C         2.062055        -1.432436        -0.164364
 O         1.659522        -2.612766         0.512537
 C         3.317497        -0.505830         0.427533
 O         2.367488         0.297073         1.212654
 H        -0.505906        -0.001153         1.206597
 H         0.127287         1.636387         0.654998
 H        -0.664934         0.431550        -0.547191
 H         1.627550         0.582620        -2.161432
 H         2.204405         1.768659        -0.953129
 H         4.252400         0.397759        -1.460701
 H         1.954480        -1.536203        -2.383412
 H         3.551898        -2.258386        -1.651271
 H         0.674241        -2.700421         0.241341
 H         4.191210        -0.827989         0.939930
