19
Iteration:  1550charge 0 multiplicity 1
 C         0.061770         0.164444         0.587794
 C         1.487583         0.080805         0.064587
 C         2.067859         0.772531        -1.210318
 C         3.238939        -0.132612        -1.242504
 C         2.612252        -1.543833        -1.483816
 C         2.049793        -1.326794        -0.112158
 O         1.459219        -2.396846         0.517645
 C         3.327328        -0.556550         0.410055
 O         2.518567         0.461108         1.025251
 H        -0.204050        -0.595614         1.308234
 H        -0.183143         1.106049         1.027063
 H        -0.497052         0.030185        -0.379856
 H         1.320526         0.831223        -1.968349
 H         2.327912         1.793071        -1.067132
 H         4.106983         0.193536        -1.693687
 H         1.730509        -1.713969        -2.299480
 H         3.447645        -2.271797        -1.539955
 H         1.854792        -3.193498         0.164509
 H         4.240566        -0.860806         0.939536
