19
Iteration:  4525charge 0 multiplicity 1
 C        -0.048439         0.241676         0.263942
 C         1.438840         0.043198         0.008693
 C         2.033768         0.795735        -1.147760
 C         3.356766        -0.038655        -1.128110
 C         2.735599        -1.494157        -1.419697
 C         2.208734        -1.438040        -0.031014
 O         1.476474        -2.431901         0.525467
 C         3.267059        -0.520137         0.488791
 O         2.418415         0.386068         1.068663
 H        -0.293799         0.256953         1.313221
 H        -0.167627         1.250139        -0.199299
 H        -0.795977        -0.366528        -0.348696
 H         1.474265         0.634923        -2.047009
 H         1.985786         1.788948        -0.852450
 H         4.290937         0.175809        -1.582804
 H         2.041699        -1.782303        -2.316412
 H         3.481138        -2.241307        -1.481761
 H         1.423995        -3.195203        -0.006766
 H         4.270813        -1.023999         0.946915
