19
Iteration:  3980charge 0 multiplicity 1
 C        -0.040649         0.236372         0.330686
 C         1.418864         0.062328        -0.013959
 C         2.091752         0.817639        -1.248704
 C         3.387455        -0.085568        -1.103895
 C         2.826083        -1.527637        -1.471989
 C         2.097697        -1.373367        -0.042953
 O         1.606582        -2.561329         0.505925
 C         3.193051        -0.506382         0.463936
 O         2.333271         0.454694         1.067544
 H        -0.326927        -0.412553         1.221537
 H        -0.272144         1.332829         0.644592
 H        -0.725596         0.004613        -0.573950
 H         1.495892         0.637004        -2.152487
 H         2.263478         1.836570        -0.969055
 H         4.256667         0.361402        -1.541047
 H         2.143076        -1.932485        -2.217496
 H         3.633626        -2.307299        -1.400832
 H         0.791769        -2.492396         1.080947
 H         3.953044        -0.967443         1.111139
