19
Iteration:  2343charge 0 multiplicity 1
 C         0.025557         0.263159         0.442345
 C         1.392835         0.045685         0.055880
 C         2.042352         0.789882        -1.289513
 C         3.345376        -0.094747        -1.156788
 C         2.729073        -1.548847        -1.528393
 C         2.089194        -1.376913        -0.144553
 O         1.548801        -2.439330         0.624295
 C         3.292337        -0.500132         0.373384
 O         2.321392         0.425021         1.106889
 H        -0.216640        -0.519123         1.129852
 H        -0.060932         1.129462         0.990795
 H        -0.701452         0.198121        -0.405116
 H         1.523743         0.595115        -2.231588
 H         2.147308         1.761891        -0.903170
 H         4.267399         0.096581        -1.532954
 H         2.181732        -1.624216        -2.441060
 H         3.563388        -2.299785        -1.690968
 H         2.168827        -3.248188         0.690811
 H         4.130787        -0.955339         1.008899
