19
Iteration:   118charge 0 multiplicity 1
 C        -0.077993         0.156185         0.283420
 C         1.368244         0.012619         0.067812
 C         2.197150         0.835836        -1.182066
 C         3.317128        -0.079401        -1.155886
 C         2.744121        -1.464926        -1.459301
 C         2.099953        -1.396025        -0.042097
 O         1.670642        -2.616308         0.628758
 C         3.287096        -0.425397         0.413983
 O         2.283695         0.498385         1.026158
 H        -0.464897        -0.552004         1.021998
 H        -0.369962         1.121391         0.656859
 H        -0.742927        -0.101360        -0.626858
 H         1.653402         0.888320        -2.135482
 H         2.409626         1.854153        -0.863191
 H         4.092866         0.292014        -1.636951
 H         2.262021        -1.513966        -2.405155
 H         3.483407        -2.344082        -1.447793
 H         0.893997        -2.957343         0.240386
 H         4.224841        -0.632458         0.954857
