19
Iteration:  2030charge 0 multiplicity 1
 C         0.005810         0.314549         0.550750
 C         1.381168        -0.026641        -0.051231
 C         2.076555         0.826893        -1.205284
 C         3.354196        -0.118663        -1.172515
 C         2.701753        -1.536250        -1.545076
 C         2.132574        -1.414658        -0.110115
 O         1.610393        -2.484051         0.603623
 C         3.282483        -0.485356         0.369560
 O         2.348790         0.387663         1.031351
 H         0.028306        -0.438676         1.430962
 H         0.082336         1.334624         0.862585
 H        -0.897940        -0.096091         0.027995
 H         1.417996         0.761151        -2.200078
 H         2.162805         1.904378        -0.913574
 H         4.293532         0.197444        -1.584713
 H         1.962931        -1.432938        -2.480969
 H         3.410000        -2.438270        -1.493351
 H         0.685799        -2.371679         0.682989
 H         4.233520        -0.765548         0.813159
