19
Iteration:  2841charge 0 multiplicity 1
 C        -0.124566         0.147340         0.368063
 C         1.381805         0.063416         0.041511
 C         2.030835         0.830518        -1.242674
 C         3.358164        -0.084872        -1.211064
 C         2.858020        -1.527522        -1.449955
 C         2.168964        -1.425432        -0.122272
 O         1.500342        -2.472183         0.561797
 C         3.227057        -0.467669         0.353310
 O         2.454539         0.392732         1.171601
 H        -0.248630        -0.443426         1.269021
 H        -0.461317         1.182453         0.492711
 H        -0.754814        -0.256228        -0.470849
 H         1.399469         0.696934        -2.145299
 H         2.386781         1.777017        -0.848267
 H         4.303421         0.246061        -1.698581
 H         2.232674        -1.778283        -2.370245
 H         3.581885        -2.294387        -1.513893
 H         1.154804        -1.766695         1.185554
 H         4.261532        -0.690773         0.864256
