19
Iteration:  1753charge 0 multiplicity 1
 C         0.029985         0.235099         0.535273
 C         1.453306         0.082365         0.104355
 C         2.114527         0.807736        -1.162023
 C         3.303631        -0.166111        -1.255973
 C         2.534135        -1.505414        -1.544370
 C         2.133456        -1.446161        -0.082679
 O         1.515818        -2.466527         0.531114
 C         3.299707        -0.531279         0.335069
 O         2.439949         0.477735         1.070218
 H        -0.203818        -0.569246         1.237497
 H        -0.095690         1.243447         0.974350
 H        -0.699993         0.165425        -0.351043
 H         1.351125         0.734202        -1.936946
 H         2.378049         1.789466        -0.795955
 H         4.093593         0.279527        -1.870217
 H         1.913314        -1.279724        -2.384100
 H         3.197664        -2.398084        -1.760469
 H         1.995277        -3.241144         0.849024
 H         4.287964        -0.780726         0.601968
