19
Iteration:  3816
 C        -0.042225         0.185056         0.298429
 C         1.454372         0.016279        -0.030399
 C         2.100623         0.866898        -1.219927
 C         3.375763        -0.107653        -1.099282
 C         2.837154        -1.501386        -1.434329
 C         2.085272        -1.417104        -0.065936
 O         1.452145        -2.408374         0.581977
 C         3.303738        -0.461426         0.425859
 O         2.294953         0.366093         1.056596
 H        -0.167372        -0.212878         1.331706
 H        -0.609293         1.112486         0.294926
 H        -0.596315        -0.439694        -0.403569
 H         1.527464         0.628689        -2.148689
 H         2.103379         1.912886        -0.886696
 H         4.273226         0.395970        -1.541777
 H         2.373779        -1.653994        -2.481496
 H         3.589668        -2.299202        -1.292377
 H         1.975755        -3.216910         0.606586
 H         4.128723        -0.679533         1.152550
