19
Iteration:  4577charge 0 multiplicity 1
 C        -0.006630         0.094889         0.353311
 C         1.412745         0.075974        -0.021525
 C         2.067133         0.826221        -1.191164
 C         3.389840        -0.094785        -1.067515
 C         2.812145        -1.480822        -1.502293
 C         2.084694        -1.356103        -0.143258
 O         1.405310        -2.344075         0.543977
 C         3.269150        -0.626262         0.492037
 O         2.392234         0.402713         1.026995
 H        -0.254470        -0.732733         1.021593
 H        -0.264962         0.984901         0.915111
 H        -0.677789         0.055405        -0.602228
 H         1.867713         0.900877        -2.293862
 H         2.409440         1.859217        -0.840591
 H         4.206283         0.236193        -1.692969
 H         2.040420        -1.528135        -2.365632
 H         3.540244        -2.323910        -1.209622
 H         1.880446        -2.582967         1.354396
 H         4.071190        -1.236224         0.879673
