19
Iteration:  1996charge 0 multiplicity 1
 C         0.002679         0.315103         0.534933
 C         1.478213         0.051921         0.041058
 C         1.971102         0.713711        -1.182061
 C         3.306795        -0.125772        -1.212699
 C         2.824927        -1.529942        -1.563422
 C         2.059798        -1.381905        -0.119511
 O         1.556789        -2.455494         0.582271
 C         3.216273        -0.522581         0.344079
 O         2.477636         0.455447         1.100260
 H        -0.121546        -0.503385         1.289937
 H        -0.287723         1.156424         1.160800
 H        -0.840242         0.245157        -0.266141
 H         1.071306         0.442689        -1.909749
 H         2.066606         1.816778        -1.217320
 H         4.194659         0.346181        -1.708307
 H         2.538866        -1.792302        -2.686416
 H         3.493014        -2.429988        -1.242186
 H         0.776958        -2.769394         0.084135
 H         4.183782        -0.918255         0.810423
