19
Iteration:   910
 C        -0.054015         0.162312         0.422374
 C         1.390287         0.084465         0.049912
 C         2.068834         0.734565        -1.185325
 C         3.349728        -0.106896        -1.132435
 C         2.787383        -1.588603        -1.598077
 C         2.093075        -1.363078        -0.163966
 O         1.556365        -2.417373         0.565428
 C         3.233938        -0.513442         0.451703
 O         2.379880         0.489168         1.089774
 H        -0.367195        -0.522556         1.226287
 H        -0.400833         1.239039         0.529433
 H        -0.630178        -0.209850        -0.444535
 H         1.390855         0.647434        -2.078238
 H         2.120962         1.864099        -1.095465
 H         4.294472         0.298126        -1.525027
 H         2.164287        -1.540322        -2.552044
 H         3.520212        -2.296634        -1.356543
 H         2.393156        -2.826625         0.974541
 H         4.035864        -0.873961         1.049013
