19
Iteration:  1762
 C         0.019779         0.268091         0.495336
 C         1.467263         0.069694         0.046769
 C         2.059871         0.810681        -1.136309
 C         3.257245        -0.099075        -1.252419
 C         2.533708        -1.496861        -1.528844
 C         2.104937        -1.360347        -0.099985
 O         1.517467        -2.515732         0.592456
 C         3.339768        -0.527864         0.376443
 O         2.499911         0.389374         1.031459
 H        -0.195735        -0.498425         1.232889
 H        -0.339702         1.154860         1.048639
 H        -0.532960         0.301789        -0.412524
 H         1.540608         0.860456        -2.047230
 H         2.244418         1.893698        -0.972126
 H         4.255316         0.198581        -1.719176
 H         1.688851        -1.481827        -2.302536
 H         3.172219        -2.496042        -1.579750
 H         2.138824        -3.257161         0.472176
 H         4.294555        -0.790374         0.826786
