19
Iteration:  3896
 C        -0.101376         0.225352         0.354586
 C         1.424763         0.029299        -0.008743
 C         2.142601         0.755117        -1.149424
 C         3.451182        -0.190180        -1.135516
 C         2.826774        -1.519291        -1.505103
 C         2.089822        -1.391348        -0.142603
 O         1.557835        -2.521787         0.505388
 C         3.182647        -0.450197         0.504428
 O         2.268660         0.514259         1.076467
 H        -0.369022        -0.585106         0.943209
 H        -0.355653         1.198269         0.790948
 H        -0.678373         0.092381        -0.568348
 H         1.480973         0.980749        -2.038381
 H         2.419907         1.893764        -1.082300
 H         4.216765         0.220954        -1.680848
 H         2.157724        -1.645691        -2.332951
 H         3.530557        -2.453318        -1.346634
 H         2.013006        -2.530272         1.323696
 H         4.093998        -0.722854         1.008203
