19
Iteration:  1717charge 0 multiplicity 1
 C         0.067460         0.212459         0.578705
 C         1.462431         0.100388         0.045457
 C         1.968875         0.793618        -1.181786
 C         3.286035        -0.048277        -1.213185
 C         2.737588        -1.448746        -1.479011
 C         2.078035        -1.415204        -0.124626
 O         1.423607        -2.385897         0.537956
 C         3.281133        -0.659428         0.194224
 O         2.497027         0.324452         1.075336
 H         0.037435        -0.275512         1.588365
 H        -0.084803         1.266832         0.927077
 H        -0.667334        -0.190802        -0.066996
 H         1.325723         0.745389        -2.007560
 H         2.130302         1.921437        -1.219149
 H         4.177448         0.258225        -1.885738
 H         2.154330        -1.682621        -2.461699
 H         3.568735        -2.321309        -1.488909
 H         1.867312        -2.437306         1.423187
 H         4.113391        -0.885939         0.874933
