19
Iteration:  2664charge 0 multiplicity 1
 C        -0.050778         0.113821         0.294732
 C         1.427775        -0.039647         0.010816
 C         1.986328         0.685904        -1.128045
 C         3.363677        -0.118133        -1.183308
 C         2.808568        -1.488284        -1.527562
 C         2.169246        -1.361839        -0.110535
 O         1.417613        -2.330192         0.627948
 C         3.302775        -0.413088         0.384890
 O         2.417563         0.414449         1.126343
 H        -0.394035        -0.130078         1.320773
 H        -0.332938         1.234003         0.269928
 H        -0.600697        -0.304733        -0.496563
 H         1.580958         0.553394        -2.129853
 H         2.004481         1.806357        -0.991386
 H         4.295377         0.482936        -1.417018
 H         2.212753        -1.661670        -2.472405
 H         3.550476        -2.205656        -1.209190
 H         1.921768        -3.196644         0.718295
 H         4.239051        -0.632462         0.791679
