19
Iteration:  1297
 C        -0.005507         0.406210         0.529138
 C         1.390713         0.083007         0.006537
 C         2.047216         0.811287        -1.212902
 C         3.337075        -0.124414        -1.209158
 C         2.692089        -1.556891        -1.532856
 C         2.152666        -1.409490        -0.108046
 O         1.596025        -2.500428         0.639348
 C         3.298577        -0.470094         0.364293
 O         2.355288         0.304139         1.063509
 H         0.009203        -0.043229         1.548456
 H        -0.158551         1.488208         0.775772
 H        -0.877197        -0.098660        -0.086246
 H         1.408892         0.565758        -2.107874
 H         2.124072         1.865660        -1.048947
 H         4.263353         0.293755        -1.759669
 H         2.090747        -1.527424        -2.436820
 H         3.266360        -2.399422        -1.747850
 H         1.500298        -3.187917        -0.006948
 H         4.135725        -0.858376         0.926648
