19
Iteration:  1624charge 0 multiplicity 1
 C        -0.026792         0.390870         0.545942
 C         1.407878         0.059704         0.172841
 C         2.004377         0.758190        -1.166039
 C         3.268862        -0.123631        -1.238790
 C         2.621708        -1.527934        -1.563839
 C         2.066522        -1.408600        -0.206471
 O         1.626542        -2.485749         0.524532
 C         3.281175        -0.530430         0.304315
 O         2.514010         0.301783         1.096549
 H        -0.435855        -0.101182         1.407323
 H        -0.010245         1.422587         0.839624
 H        -0.654893         0.174484        -0.378831
 H         1.670122         0.925559        -2.221585
 H         2.289538         1.776759        -0.976001
 H         4.176909         0.318332        -1.696363
 H         2.009758        -1.758934        -2.423632
 H         3.309753        -2.323186        -1.536519
 H         1.606484        -2.294955         1.475688
 H         4.242406        -0.789562         0.734372
