19
Iteration:  4247
 C         0.020355         0.070945         0.231422
 C         1.442265         0.009407         0.013316
 C         2.090300         0.784215        -1.102099
 C         3.425453        -0.114079        -1.164909
 C         2.822965        -1.500219        -1.486554
 C         2.083291        -1.345143        -0.127338
 O         1.340526        -2.313220         0.595394
 C         3.298691        -0.444969         0.408581
 O         2.312840         0.381549         1.142156
 H        -0.073588        -0.266978         1.313406
 H        -0.336016         1.027432        -0.148840
 H        -0.478369        -0.735780        -0.262196
 H         1.745132         0.727720        -2.066175
 H         2.004172         1.826964        -0.842066
 H         4.442962         0.166200        -1.534982
 H         2.158067        -1.472418        -2.278473
 H         3.623682        -2.210797        -1.560992
 H         1.995835        -3.081640         0.827777
 H         4.187259        -0.752698         0.828007
