19
Iteration:   571
 C        -0.045842         0.196468         0.306205
 C         1.428903        -0.046885         0.019641
 C         1.975272         0.799915        -1.168349
 C         3.327080        -0.053235        -1.194817
 C         2.763313        -1.517442        -1.592558
 C         2.251543        -1.378436        -0.090690
 O         1.459219        -2.443608         0.636686
 C         3.344901        -0.433074         0.396460
 O         2.370746         0.351474         1.148181
 H        -0.460400        -0.392724         1.095074
 H        -0.191881         1.241832         0.595419
 H        -0.683349        -0.090346        -0.508660
 H         1.454887         0.464368        -2.064479
 H         1.975988         1.914765        -0.828182
 H         4.275063         0.287488        -1.810434
 H         2.097512        -1.385681        -2.491727
 H         3.405300        -2.342921        -1.636472
 H         2.042232        -2.658685         1.339794
 H         4.196772        -0.539839         0.984238
