19
Iteration:  4259
 C        -0.073589         0.043271         0.297610
 C         1.423039        -0.021529        -0.019579
 C         2.186915         0.793021        -1.209308
 C         3.450389        -0.057916        -1.072662
 C         2.783167        -1.427663        -1.508154
 C         2.053636        -1.394248        -0.126977
 O         1.355481        -2.378353         0.620041
 C         3.285635        -0.492801         0.413279
 O         2.384458         0.452925         1.085790
 H        -0.258811        -0.006227         1.416262
 H        -0.574008         0.983774         0.103376
 H        -0.565137        -0.733995        -0.225186
 H         1.640558         0.743128        -2.097828
 H         2.310257         1.792006        -0.808632
 H         4.447144         0.338550        -1.448091
 H         2.368750        -1.623392        -2.461269
 H         3.440434        -2.238055        -1.347394
 H         1.869506        -3.169587         0.567527
 H         4.099560        -0.742518         1.058862
