19
Iteration:   601
 C        -0.065867         0.152313         0.414537
 C         1.422767         0.087508         0.016108
 C         2.035227         0.888701        -1.126583
 C         3.319805        -0.119417        -1.161910
 C         2.840947        -1.591074        -1.515542
 C         2.042896        -1.343158        -0.183678
 O         1.581589        -2.452181         0.618300
 C         3.190786        -0.521705         0.344137
 O         2.357636         0.426501         1.065223
 H        -0.071631        -0.513620         1.285008
 H        -0.444517         1.199783         0.621526
 H        -0.660207        -0.223512        -0.391826
 H         1.550288         0.925917        -2.136477
 H         2.221942         1.954158        -1.076557
 H         4.285426         0.200392        -1.579905
 H         2.511340        -1.825182        -2.562395
 H         3.597101        -2.348742        -1.243299
 H         2.386935        -2.800587         1.137666
 H         4.082718        -0.956666         0.904739
