19
Iteration:  2351charge 0 multiplicity 1
 C        -0.006796         0.206547         0.417371
 C         1.468639         0.147443         0.005380
 C         1.998354         0.750253        -1.225363
 C         3.311176        -0.103293        -1.157674
 C         2.778152        -1.523143        -1.497296
 C         2.115695        -1.403372        -0.123809
 O         1.567341        -2.384684         0.630601
 C         3.233564        -0.591995         0.409287
 O         2.355742         0.405834         1.105471
 H        -0.377788        -0.555224         1.052413
 H        -0.150058         1.198704         0.920460
 H        -0.624026         0.367904        -0.460871
 H         1.398508         0.538597        -2.092203
 H         2.188713         1.856395        -1.098852
 H         4.170149         0.289946        -1.793838
 H         2.077581        -1.640542        -2.381765
 H         3.428339        -2.381928        -1.586142
 H         2.020269        -3.193544         0.254467
 H         4.246695        -0.768923         0.824173
