19
Iteration:  2055charge 0 multiplicity 1
 C        -0.035302         0.258926         0.411842
 C         1.453471         0.067237         0.121065
 C         2.036166         0.800446        -1.200643
 C         3.284699        -0.139433        -1.230825
 C         2.671642        -1.485992        -1.552334
 C         2.136698        -1.421526        -0.107649
 O         1.622696        -2.509201         0.590578
 C         3.254137        -0.537828         0.373494
 O         2.454915         0.404783         1.083921
 H        -0.433211        -0.188751         1.385661
 H        -0.099692         1.341896         0.335865
 H        -0.616372        -0.207452        -0.321748
 H         1.206838         0.772331        -1.947619
 H         2.391237         1.822435        -0.898755
 H         4.207629         0.224747        -1.675596
 H         2.038264        -1.481174        -2.424535
 H         3.383662        -2.253775        -1.463554
 H         0.824998        -2.202091         0.989445
 H         4.181248        -0.831278         0.790349
