19
Iteration:   991
 C        -0.040379         0.225026         0.449318
 C         1.381465         0.068618         0.034944
 C         2.062665         0.812698        -1.267781
 C         3.325139        -0.075219        -1.158952
 C         2.782463        -1.527242        -1.502832
 C         2.086015        -1.337369        -0.139979
 O         1.678408        -2.523777         0.640834
 C         3.246442        -0.524208         0.375716
 O         2.358064         0.415279         1.057620
 H        -0.242218        -0.264753         1.394166
 H        -0.229032         1.219443         0.737593
 H        -0.671322        -0.128931        -0.299492
 H         1.617981         0.533462        -2.294593
 H         1.970515         1.906267        -0.986885
 H         4.355468         0.161439        -1.468620
 H         2.197928        -1.579541        -2.474469
 H         3.423836        -2.532711        -1.446272
 H         0.767878        -2.753934         0.308967
 H         4.042541        -0.696380         1.210991
