19
Iteration:   683charge 0 multiplicity 1
 C        -0.143599         0.177904         0.430192
 C         1.417000         0.086031         0.054107
 C         1.985274         0.763497        -1.236426
 C         3.371031        -0.020259        -1.162556
 C         2.822796        -1.548574        -1.451046
 C         2.113009        -1.352865        -0.156112
 O         1.575290        -2.382592         0.587327
 C         3.258221        -0.544570         0.408104
 O         2.397700         0.403128         1.062513
 H        -0.554379        -0.414738         1.251637
 H        -0.240830         1.150322         0.713827
 H        -0.734054        -0.183381        -0.434900
 H         1.574937         0.445831        -2.102813
 H         2.132413         1.790792        -0.945561
 H         4.320842         0.163382        -1.613675
 H         2.341317        -1.772940        -2.370423
 H         3.670094        -2.212801        -1.290095
 H         1.873831        -3.203151         0.191062
 H         4.096349        -0.980265         0.912062
