19
Iteration:  1508charge 0 multiplicity 1
 C         0.037372         0.304882         0.508788
 C         1.433326        -0.008700         0.104642
 C         1.977374         0.780977        -1.152979
 C         3.276840        -0.109050        -1.223404
 C         2.683248        -1.458576        -1.539481
 C         2.079685        -1.403164        -0.142899
 O         1.579501        -2.381465         0.641530
 C         3.311770        -0.592635         0.312080
 O         2.484744         0.340402         1.037954
 H        -0.388211        -0.017611         1.496748
 H         0.004034         1.408256         0.585506
 H        -0.695242        -0.108019        -0.220297
 H         1.441038         0.682185        -2.086567
 H         2.151611         1.871556        -0.976542
 H         4.050859         0.261207        -1.760250
 H         2.271045        -1.507546        -2.516023
 H         3.300833        -2.363746        -1.470039
 H         0.960143        -2.937890         0.201521
 H         4.223254        -0.962360         0.819098
