19
Iteration:  4897charge 0 multiplicity 1
 C         0.038679         0.131830         0.436319
 C         1.501706         0.005337         0.024531
 C         2.110566         0.749357        -1.122063
 C         3.334445        -0.081114        -1.184947
 C         2.763195        -1.476227        -1.525341
 C         2.081617        -1.376047        -0.120352
 O         1.279736        -2.341077         0.559870
 C         3.266614        -0.516807         0.350448
 O         2.488949         0.415198         1.117199
 H        -0.217696        -0.851194         0.884955
 H        -0.015793         0.955778         1.177291
 H        -0.641045         0.304487        -0.317638
 H         1.705862         0.592883        -2.234061
 H         2.292625         1.836657        -0.889476
 H         4.359517         0.294933        -1.372156
 H         2.229088        -1.459219        -2.491066
 H         3.535528        -2.256668        -1.516299
 H         1.105231        -3.096675         0.056247
 H         4.116048        -0.900960         0.910818
