19
Iteration:  4029charge 0 multiplicity 1
 C        -0.089272         0.298439         0.292342
 C         1.445570         0.002608         0.009046
 C         2.006469         0.739399        -1.227742
 C         3.368872        -0.059889        -1.169885
 C         2.852304        -1.452398        -1.384376
 C         2.142374        -1.421713        -0.083994
 O         1.495673        -2.460516         0.463255
 C         3.263743        -0.552198         0.542190
 O         2.316901         0.377751         1.101205
 H        -0.235265         0.277566         1.364501
 H        -0.312211         1.316523        -0.010171
 H        -0.762146        -0.354450        -0.268419
 H         1.557110         0.519151        -2.247608
 H         2.130867         1.856366        -0.885505
 H         4.292153         0.318005        -1.775335
 H         2.425519        -1.734572        -2.381554
 H         3.712471        -2.190288        -1.409476
 H         1.987760        -2.642861         1.266458
 H         4.248613        -0.860235         0.925377
