19
Iteration:  4815charge 0 multiplicity 1
 C        -0.017419         0.564913         0.374562
 C         1.414842         0.044748         0.030215
 C         2.030861         0.709665        -1.177357
 C         3.293712        -0.099560        -1.124429
 C         2.734988        -1.496583        -1.524783
 C         2.068079        -1.434639        -0.153783
 O         1.659451        -2.611605         0.514156
 C         3.307034        -0.522363         0.420102
 O         2.368028         0.308108         1.208945
 H        -0.500470        -0.016309         1.174304
 H         0.109559         1.609128         0.685950
 H        -0.656195         0.454644        -0.605624
 H         1.619362         0.651835        -2.199899
 H         2.279539         1.795752        -0.985736
 H         4.231241         0.392645        -1.473613
 H         1.882050        -1.625429        -2.389689
 H         3.615135        -2.264086        -1.683841
 H         0.702090        -2.706336         0.193884
 H         4.233601        -0.808286         0.929857
