19
Iteration:   880charge 0 multiplicity 1
 C        -0.016948         0.184318         0.392322
 C         1.380304         0.022893        -0.042078
 C         2.073155         0.812481        -1.243652
 C         3.302248        -0.055045        -1.181806
 C         2.769935        -1.552454        -1.495299
 C         2.203956        -1.379236        -0.117653
 O         1.524243        -2.453121         0.685634
 C         3.272383        -0.459333         0.429317
 O         2.308282         0.397274         1.084067
 H        -0.163853        -0.549647         1.197588
 H        -0.208297         1.236204         0.497602
 H        -0.714319         0.047844        -0.416971
 H         1.521359         0.988352        -2.206907
 H         2.169450         1.836585        -0.739741
 H         4.255217         0.282324        -1.417932
 H         2.175462        -1.540865        -2.419834
 H         3.522343        -2.392575        -1.674747
 H         1.923306        -3.292533         0.403354
 H         4.307407        -0.768655         0.915277
