19
Iteration:  1587charge 0 multiplicity 1
 C         0.053141         0.269192         0.621690
 C         1.460432         0.086745         0.097012
 C         2.023440         0.785494        -1.265122
 C         3.219767        -0.083690        -1.256443
 C         2.737644        -1.506231        -1.655253
 C         2.134162        -1.442195        -0.153380
 O         1.403853        -2.431487         0.607580
 C         3.279550        -0.570050         0.393329
 O         2.485497         0.350770         1.052764
 H        -0.287378        -0.535584         1.361543
 H        -0.053020         1.342079         1.017945
 H        -0.647867         0.296653        -0.191289
 H         1.389480         0.656041        -2.159153
 H         2.280012         1.813074        -0.861271
 H         4.192243         0.319843        -1.705777
 H         1.945558        -1.642076        -2.345599
 H         3.610482        -2.216842        -1.806676
 H         2.122110        -2.628291         1.181566
 H         4.250764        -0.753677         0.897516
