19
Iteration:  1477charge 0 multiplicity 1
 C        -0.016852         0.374199         0.532480
 C         1.414985         0.139660         0.098318
 C         2.115063         0.803358        -1.238398
 C         3.249899        -0.119871        -1.205160
 C         2.634564        -1.508837        -1.582648
 C         2.070765        -1.449842        -0.135517
 O         1.724701        -2.572075         0.593559
 C         3.246271        -0.555504         0.317833
 O         2.413373         0.346217         1.099933
 H        -0.155978        -0.035197         1.588748
 H        -0.257013         1.499253         0.642326
 H        -0.712478         0.012511        -0.232469
 H         1.558968         0.761301        -2.198707
 H         2.389110         1.931763        -1.175969
 H         4.107365         0.319791        -1.700242
 H         2.115383        -1.364587        -2.433554
 H         3.184691        -2.453709        -1.426212
 H         0.751257        -2.665938         0.860200
 H         4.178061        -0.764810         0.878035
