19
Iteration:  3357
 C        -0.095665         0.245460         0.374875
 C         1.387368         0.025754         0.075352
 C         2.101357         0.738438        -1.161970
 C         3.319321        -0.090490        -1.124048
 C         2.789587        -1.543006        -1.464651
 C         2.145718        -1.415385        -0.092813
 O         1.572922        -2.513113         0.484938
 C         3.299807        -0.441105         0.348929
 O         2.369743         0.460532         1.105376
 H        -0.664292        -0.612239         0.943249
 H        -0.145462         1.205932         0.832636
 H        -0.627769         0.146440        -0.562431
 H         1.428346         0.616933        -2.010967
 H         2.278962         1.759781        -1.028149
 H         4.366214         0.224879        -1.478477
 H         2.395044        -1.668000        -2.508228
 H         3.446451        -2.353344        -1.445705
 H         0.720975        -2.348545         0.861335
 H         4.288666        -0.533700         0.825636
