19
Iteration:  1418charge 0 multiplicity 1
 C        -0.038972         0.303576         0.530650
 C         1.431198         0.113752         0.087580
 C         2.034003         0.734478        -1.236171
 C         3.306235        -0.032985        -1.291299
 C         2.737170        -1.505799        -1.498047
 C         2.139614        -1.371969        -0.061931
 O         1.426297        -2.449423         0.534754
 C         3.294277        -0.529160         0.266424
 O         2.527490         0.326013         1.143421
 H        -0.199940        -0.554212         1.202352
 H        -0.396579         1.288121         0.889436
 H        -0.757134        -0.105746        -0.317986
 H         1.389751         0.267887        -2.000347
 H         2.024642         1.785190        -1.180869
 H         4.197814         0.376728        -1.838379
 H         2.263750        -1.741008        -2.530191
 H         3.348650        -2.411525        -1.477133
 H         1.855665        -2.611876         1.361576
 H         4.107870        -1.021706         0.814138
