19
Iteration:  1521
 C         0.020849         0.300127         0.526986
 C         1.453895         0.045048         0.051017
 C         2.041554         0.738186        -1.161931
 C         3.271765        -0.033751        -1.235562
 C         2.680858        -1.545582        -1.595322
 C         2.102136        -1.423335        -0.122189
 O         1.432665        -2.466366         0.698136
 C         3.360657        -0.472745         0.291949
 O         2.505716         0.348091         1.072662
 H        -0.099181        -0.355503         1.453940
 H        -0.275820         1.404157         0.628593
 H        -0.577950        -0.014071        -0.307808
 H         1.324862         0.719062        -2.011264
 H         2.245754         1.846471        -0.874812
 H         4.188165         0.418026        -1.657003
 H         1.905314        -1.630663        -2.233698
 H         3.591786        -2.128701        -1.716355
 H         1.077436        -3.092218        -0.017698
 H         4.362772        -0.737586         0.691988
