19
Iteration:  3812charge 0 multiplicity 1
 C        -0.034535         0.169597         0.284528
 C         1.432223        -0.006672        -0.012345
 C         2.133478         0.874237        -1.216396
 C         3.397123        -0.112172        -1.084794
 C         2.818378        -1.505919        -1.426967
 C         2.062754        -1.400867        -0.077846
 O         1.445138        -2.421731         0.589906
 C         3.303414        -0.422788         0.428203
 O         2.291346         0.379585         1.044420
 H        -0.187504        -0.333319         1.341933
 H        -0.556569         1.139080         0.368230
 H        -0.625293        -0.542084        -0.335158
 H         1.624919         0.548354        -2.075194
 H         2.290213         1.892518        -0.959744
 H         4.193946         0.478598        -1.646655
 H         2.382686        -1.536482        -2.444418
 H         3.481617        -2.339772        -1.291165
 H         1.975555        -3.280499         0.504822
 H         4.210101        -0.656497         0.997987
