19
Iteration:    30charge 0 multiplicity 1
 C        -0.093981         0.175007         0.409900
 C         1.421728         0.128657         0.049150
 C         2.050063         0.705462        -1.286771
 C         3.373260        -0.114905        -1.143370
 C         2.777418        -1.487003        -1.433695
 C         2.123445        -1.357659        -0.023237
 O         1.685651        -2.557161         0.413498
 C         3.181632        -0.452474         0.518928
 O         2.366936         0.535748         1.063667
 H        -0.255145        -0.507786         1.239995
 H        -0.589927         1.119248         0.584662
 H        -0.481368        -0.549094        -0.379280
 H         1.492990         0.513502        -2.172405
 H         2.108551         1.786876        -1.189575
 H         4.338803         0.096088        -1.473134
 H         2.173695        -1.658611        -2.313961
 H         3.518062        -2.358012        -1.464803
 H         0.782544        -2.506131         0.649080
 H         4.011660        -0.915189         1.132978
