19
Iteration:  2781charge 0 multiplicity 1
 C        -0.131302         0.325285         0.317024
 C         1.355855         0.088733         0.045200
 C         1.997737         0.756738        -1.152573
 C         3.292104        -0.087843        -1.164708
 C         2.831819        -1.503715        -1.463778
 C         2.179170        -1.449243        -0.150666
 O         1.588491        -2.527624         0.565029
 C         3.302941        -0.521548         0.444114
 O         2.377094         0.399917         1.076900
 H        -0.626444        -0.262840         1.159869
 H        -0.194633         1.378770         0.669964
 H        -0.633466         0.223125        -0.690584
 H         1.526068         0.632850        -2.139001
 H         2.209640         1.848107        -1.193197
 H         4.115192         0.198245        -1.874863
 H         2.185154        -1.523264        -2.298795
 H         3.731654        -2.234591        -1.400533
 H         2.147322        -2.879206         1.236962
 H         4.082859        -0.807983         1.105709
