19
Iteration:  1417charge 0 multiplicity 1
 C        -0.042855         0.293370         0.524285
 C         1.427143         0.123245         0.084606
 C         2.033586         0.734043        -1.236491
 C         3.308388        -0.030850        -1.290108
 C         2.744301        -1.508145        -1.493861
 C         2.138877        -1.366061        -0.065596
 O         1.419392        -2.448416         0.538826
 C         3.291011        -0.536091         0.270000
 O         2.531933         0.323684         1.144288
 H        -0.193217        -0.528705         1.224041
 H        -0.373413         1.255581         0.923910
 H        -0.755747        -0.096302        -0.287058
 H         1.404888         0.292363        -2.029949
 H         2.028939         1.773262        -1.193786
 H         4.210797         0.424448        -1.872254
 H         2.248267        -1.757159        -2.550070
 H         3.325949        -2.416301        -1.490903
 H         1.894879        -2.621428         1.367233
 H         4.118874        -1.004523         0.805104
