19
Iteration:  1890charge 0 multiplicity 1
 C         0.098783         0.254635         0.441148
 C         1.507968         0.012955         0.096619
 C         1.947358         0.788490        -1.139091
 C         3.249523        -0.091247        -1.220096
 C         2.695849        -1.468346        -1.591441
 C         2.111074        -1.405696        -0.068122
 O         1.470782        -2.462186         0.526873
 C         3.318940        -0.527814         0.311550
 O         2.456199         0.347380         1.088540
 H        -0.206854        -0.248724         1.444886
 H        -0.040133         1.414500         0.556506
 H        -0.700643        -0.317142        -0.093140
 H         1.257774         0.562691        -2.034011
 H         2.213822         1.936922        -0.982778
 H         4.177709         0.344090        -1.729885
 H         1.961567        -1.829703        -2.286242
 H         3.533150        -2.119799        -1.547190
 H         1.430794        -2.115665         1.473926
 H         4.323357        -0.717394         0.719227
