19
Iteration:  3029charge 0 multiplicity 1
 C        -0.000530         0.150989         0.419626
 C         1.412273         0.070980         0.004979
 C         2.052067         0.732211        -1.241447
 C         3.352219        -0.068410        -1.089066
 C         2.778314        -1.535425        -1.475933
 C         2.184814        -1.350091        -0.111946
 O         1.497627        -2.389275         0.572840
 C         3.277638        -0.548106         0.452520
 O         2.316492         0.467065         1.030231
 H         0.037650        -0.473804         1.379005
 H        -0.271800         1.145141         0.638330
 H        -0.773054        -0.329654        -0.304863
 H         1.561970         0.515495        -2.219636
 H         2.220856         1.756061        -0.972017
 H         4.296357         0.319106        -1.437772
 H         2.201782        -1.538950        -2.384149
 H         3.503192        -2.353436        -1.543616
 H         1.241852        -3.073019        -0.041518
 H         4.206323        -0.793684         1.076205
