19
Iteration:  3931charge 0 multiplicity 1
 C        -0.013715         0.191253         0.258747
 C         1.419137         0.022568        -0.100357
 C         2.052622         0.805419        -1.233967
 C         3.326477        -0.050298        -1.144610
 C         2.866555        -1.470164        -1.445999
 C         2.131850        -1.454666        -0.150662
 O         1.518879        -2.442136         0.609272
 C         3.236333        -0.542357         0.472320
 O         2.378607         0.394226         1.167841
 H        -0.443738        -0.700887         0.755335
 H        -0.224701         0.994875         0.914794
 H        -0.594590         0.285095        -0.640556
 H         1.352425         0.431117        -1.972460
 H         2.147606         1.876153        -0.884857
 H         4.228092         0.347052        -1.694239
 H         2.220461        -1.593029        -2.336612
 H         3.525733        -2.339166        -1.428459
 H         1.018179        -1.943913         1.261476
 H         4.119638        -0.779866         1.066605
