19
Iteration:   710charge 0 multiplicity 1
 C         0.015020         0.124833         0.374268
 C         1.437119         0.035676        -0.016157
 C         2.098416         0.767522        -1.205551
 C         3.333318        -0.080080        -1.158677
 C         2.700741        -1.453343        -1.570019
 C         2.161688        -1.432701        -0.097374
 O         1.535730        -2.477076         0.674542
 C         3.256344        -0.429652         0.423674
 O         2.262265         0.464519         1.095366
 H        -0.253966        -0.440834         1.301053
 H        -0.028863         1.293023         0.683247
 H        -0.749920        -0.139506        -0.380113
 H         1.626654         0.620260        -2.276159
 H         2.348281         1.758455        -0.786676
 H         4.373404         0.102403        -1.610559
 H         1.996205        -1.451063        -2.484740
 H         3.567459        -2.173389        -1.768941
 H         1.973133        -3.269469         0.428413
 H         4.273901        -0.647047         0.921510
