19
Iteration:  2047
 C         0.006598         0.234090         0.476573
 C         1.487327         0.055963         0.019001
 C         2.058230         0.715020        -1.146169
 C         3.296705        -0.128469        -1.211580
 C         2.676637        -1.477116        -1.564138
 C         2.104318        -1.423783        -0.120512
 O         1.620405        -2.503247         0.600805
 C         3.255693        -0.497891         0.353957
 O         2.394325         0.419964         1.074428
 H        -0.369299         0.003295         1.435053
 H        -0.148158         1.365097         0.564787
 H        -0.729374        -0.030581        -0.326792
 H         1.519421         0.950228        -2.018024
 H         2.368496         1.718488        -0.856441
 H         4.108018         0.317441        -1.866809
 H         1.995004        -1.607473        -2.337900
 H         3.450362        -2.244041        -1.721755
 H         0.768393        -2.273900         0.910375
 H         4.118972        -0.774341         1.068497
