19
Iteration:  1974charge 0 multiplicity 1
 C        -0.018666         0.313494         0.515993
 C         1.461716        -0.029760         0.072916
 C         1.997205         0.743382        -1.187892
 C         3.253524        -0.059766        -1.186495
 C         2.735000        -1.530154        -1.448578
 C         2.145059        -1.406079        -0.067855
 O         1.509694        -2.443459         0.560039
 C         3.321698        -0.485225         0.349080
 O         2.486243         0.408606         1.041897
 H        -0.489692        -0.433008         1.176501
 H        -0.211793         1.249551         1.022002
 H        -0.526777         0.193742        -0.504493
 H         1.471613         0.629621        -2.246486
 H         2.062565         1.831225        -1.225903
 H         4.028888         0.318296        -1.899353
 H         1.917920        -1.732687        -2.274660
 H         3.580799        -2.290208        -1.633603
 H         1.112744        -3.079480        -0.064408
 H         4.314367        -0.842824         0.804567
