19
Iteration:  1844charge 0 multiplicity 1
 C         0.048522         0.267338         0.662811
 C         1.464826         0.158379         0.050250
 C         2.013670         0.790052        -1.173658
 C         3.321561        -0.125410        -1.205086
 C         2.670013        -1.539386        -1.513583
 C         2.033102        -1.414608        -0.171111
 O         1.613768        -2.543359         0.530244
 C         3.269327        -0.553920         0.337884
 O         2.435428         0.487782         1.020574
 H        -0.132207        -0.361395         1.588659
 H        -0.212849         1.329116         0.817091
 H        -0.754998        -0.169478        -0.095369
 H         1.480138         0.514167        -2.183543
 H         2.270585         1.855961        -0.996015
 H         4.233007         0.011629        -1.811433
 H         2.238645        -1.369906        -2.493263
 H         3.385569        -2.339363        -1.553506
 H         0.670486        -2.665844         0.491961
 H         4.124799        -1.067266         0.911945
