19
Iteration:  4565charge 0 multiplicity 1
 C        -0.049614         0.054161         0.342348
 C         1.431331         0.099908        -0.020683
 C         2.195159         0.891107        -1.211783
 C         3.390691        -0.100902        -1.122043
 C         2.763272        -1.496777        -1.465467
 C         2.057898        -1.349302        -0.143829
 O         1.370520        -2.373516         0.593629
 C         3.218315        -0.588518         0.414741
 O         2.423187         0.410307         1.107754
 H        -0.122827        -0.727603         1.118693
 H        -0.427601         1.005298         0.676462
 H        -0.638023        -0.311556        -0.544079
 H         1.618573         0.733015        -2.177875
 H         2.377574         2.023270        -1.011322
 H         4.415540         0.209623        -1.376170
 H         2.192379        -1.635745        -2.436768
 H         3.529113        -2.331038        -1.607534
 H         2.143762        -2.904528         0.992458
 H         4.053393        -0.922183         0.967057
