19
Iteration:  2945charge 0 multiplicity 1
 C        -0.033025         0.328899         0.360675
 C         1.371951         0.042821         0.003495
 C         2.012653         0.698704        -1.159038
 C         3.335076        -0.058236        -1.149962
 C         2.839496        -1.480490        -1.515168
 C         2.156753        -1.427024        -0.119405
 O         1.499413        -2.491341         0.611553
 C         3.285824        -0.451214         0.361805
 O         2.351184         0.316200         1.091255
 H        -0.517493        -0.249659         1.155775
 H        -0.242759         1.361819         0.633815
 H        -0.476732         0.120723        -0.565769
 H         1.416037         0.496662        -2.032681
 H         2.072160         1.797794        -1.238428
 H         4.247209         0.260297        -1.627388
 H         2.224193        -1.380035        -2.361930
 H         3.696676        -2.208253        -1.472100
 H         2.125961        -2.674028         1.380891
 H         4.150252        -0.736030         0.835787
