19
Iteration:  3851charge 0 multiplicity 1
 C        -0.097166         0.298334         0.294581
 C         1.387553         0.031036         0.011504
 C         2.020977         0.655614        -1.163372
 C         3.393590        -0.087752        -1.127456
 C         2.913006        -1.485068        -1.525102
 C         2.097858        -1.376205        -0.103150
 O         1.469628        -2.463063         0.531184
 C         3.326631        -0.459878         0.411365
 O         2.321247         0.377184         1.148478
 H        -0.384624        -0.048674         1.212750
 H        -0.233042         1.386234         0.171968
 H        -0.698700        -0.247828        -0.451425
 H         1.470796         0.552028        -2.137242
 H         1.924712         1.792935        -0.967862
 H         4.316288         0.231973        -1.486978
 H         2.512382        -1.574827        -2.531303
 H         3.692200        -2.289705        -1.267739
 H         2.105544        -2.841918         1.169400
 H         4.059481        -0.665758         1.173541
