19
Iteration:  4990
 C        -0.016018         0.488782         0.423157
 C         1.382873         0.052591         0.118592
 C         2.091298         0.848884        -1.086777
 C         3.369516        -0.111834        -1.174322
 C         2.737497        -1.516928        -1.632500
 C         2.007177        -1.402546        -0.147178
 O         1.547698        -2.541213         0.453295
 C         3.301347        -0.591052         0.355325
 O         2.398003         0.247958         1.144184
 H        -0.126078         0.391522         1.504973
 H        -0.170628         1.423415        -0.142615
 H        -0.644074        -0.430077         0.025002
 H         1.397594         0.877664        -2.007386
 H         2.280997         1.917310        -0.825947
 H         4.272787         0.309948        -1.571506
 H         2.125146        -1.531415        -2.536530
 H         3.397990        -2.330087        -1.389882
 H         1.699215        -2.268574         1.434324
 H         4.085425        -1.059188         1.008954
