19
Iteration:  3924charge 0 multiplicity 1
 C        -0.061273         0.205898         0.266356
 C         1.428806         0.028896        -0.111498
 C         2.055334         0.812717        -1.253162
 C         3.356239        -0.088441        -1.072058
 C         2.817232        -1.471430        -1.455747
 C         2.119125        -1.406809        -0.096884
 O         1.535803        -2.448801         0.579812
 C         3.255630        -0.511892         0.457263
 O         2.372657         0.365025         1.148201
 H        -0.387751        -0.810924         0.757525
 H        -0.189760         1.050669         0.987391
 H        -0.767272         0.177660        -0.609337
 H         1.469457         0.681756        -2.216707
 H         2.164385         1.825857        -1.017758
 H         4.279544         0.299797        -1.640834
 H         2.171000        -1.747066        -2.327271
 H         3.594566        -2.194125        -1.307099
 H         1.177643        -2.091874         1.361158
 H         4.237051        -0.845577         0.894359
