19
Iteration:  3548
 C        -0.015566         0.342041         0.326997
 C         1.392018         0.093213         0.049262
 C         2.029528         0.734663        -1.236771
 C         3.312958        -0.041613        -1.129186
 C         2.839832        -1.490762        -1.475904
 C         2.139437        -1.481102        -0.120254
 O         1.535228        -2.515695         0.582856
 C         3.293474        -0.471368         0.446023
 O         2.304436         0.405407         1.135831
 H        -0.584629        -0.420159         0.796185
 H        -0.168515         1.357577         0.842053
 H        -0.616295         0.249859        -0.658759
 H         1.566239         0.342277        -2.152004
 H         2.152191         1.888715        -1.171258
 H         4.232804         0.203292        -1.646846
 H         2.172920        -1.706449        -2.317997
 H         3.643526        -2.392192        -1.499063
 H         1.975144        -3.393531         0.264165
 H         4.222137        -0.746208         1.072799
