19
Iteration:  2796
 C        -0.076149         0.265422         0.340956
 C         1.381231         0.050541        -0.035130
 C         2.105177         0.754003        -1.246382
 C         3.356283        -0.106820        -1.129985
 C         2.742613        -1.484785        -1.571856
 C         2.095144        -1.404232        -0.021589
 O         1.604909        -2.574932         0.563289
 C         3.217532        -0.466179         0.457038
 O         2.362190         0.461575         1.110322
 H        -0.237158        -0.412286         1.148858
 H        -0.367135         1.303205         0.688506
 H        -0.724814         0.179911        -0.487621
 H         1.564867         0.525940        -2.133947
 H         2.236836         1.775047        -0.865224
 H         4.298345         0.331798        -1.373799
 H         2.043785        -1.522999        -2.468762
 H         3.422891        -2.275413        -1.720224
 H         2.181452        -2.802000         1.354008
 H         4.177634        -0.752330         0.902752
