19
Iteration:   486
 C        -0.003114         0.241136         0.421563
 C         1.383263        -0.042118        -0.012228
 C         2.008500         0.726501        -1.230382
 C         3.334109        -0.008140        -1.150094
 C         2.798101        -1.431777        -1.479357
 C         2.219648        -1.391364        -0.121004
 O         1.573321        -2.507303         0.544617
 C         3.269822        -0.497939         0.396523
 O         2.338060         0.376173         1.101245
 H        -0.051318        -0.221392         1.396404
 H        -0.048327         1.306523         0.610934
 H        -0.834194         0.100280        -0.361436
 H         1.548947         0.364104        -2.125664
 H         1.795680         1.740880        -1.303484
 H         4.308979         0.446403        -1.579900
 H         2.025833        -1.638711        -2.248447
 H         3.436266        -2.337032        -1.469026
 H         0.984563        -2.074186         1.261865
 H         4.068493        -0.915042         0.922809
