19
Iteration:  3934charge 0 multiplicity 1
 C         0.010176         0.175163         0.248757
 C         1.407765         0.026664        -0.052738
 C         2.053558         0.782183        -1.196457
 C         3.317316        -0.032637        -1.183836
 C         2.882060        -1.502099        -1.452617
 C         2.145224        -1.440110        -0.158609
 O         1.506503        -2.443119         0.620842
 C         3.223593        -0.538618         0.474529
 O         2.372922         0.398827         1.158008
 H        -0.475647        -0.734514         0.839099
 H        -0.233023         1.051192         0.879432
 H        -0.524781         0.420622        -0.698988
 H         1.372932         0.473980        -2.011869
 H         2.094948         1.801661        -0.975215
 H         4.301659         0.381138        -1.689937
 H         2.257740        -1.499725        -2.405368
 H         3.546535        -2.285834        -1.539416
 H         0.960317        -1.919550         1.197477
 H         4.091608        -0.797061         1.137509
