19
Iteration:   387charge 0 multiplicity 1
 C        -0.047619         0.184018         0.406220
 C         1.380545         0.040856        -0.007435
 C         1.990516         0.764264        -1.199312
 C         3.305489        -0.054107        -1.124557
 C         2.827500        -1.504095        -1.514326
 C         2.121609        -1.365663        -0.146926
 O         1.530854        -2.407314         0.603858
 C         3.254930        -0.528799         0.389820
 O         2.402883         0.351257         1.086606
 H        -0.291619        -0.427280         1.264357
 H        -0.203054         1.257640         0.606222
 H        -0.708933        -0.074496        -0.486735
 H         1.431842         0.495024        -2.068826
 H         1.980464         1.810839        -1.150891
 H         4.293173         0.475612        -1.551354
 H         2.468278        -1.372785        -2.570971
 H         3.715217        -2.152768        -1.367812
 H         2.107998        -2.970996         1.156101
 H         4.200120        -0.747741         0.822601
