19
Iteration:  3641charge 0 multiplicity 1
 C        -0.097395         0.176710         0.254340
 C         1.381263         0.069916         0.047160
 C         2.041570         0.755211        -1.149618
 C         3.401696        -0.122257        -1.130308
 C         2.868112        -1.496889        -1.498557
 C         2.150492        -1.384480        -0.103915
 O         1.531588        -2.453995         0.619963
 C         3.316871        -0.519312         0.410561
 O         2.327384         0.403949         1.116003
 H        -0.461143        -0.281446         1.193934
 H        -0.357956         1.186046         0.234475
 H        -0.631876        -0.448420        -0.373534
 H         1.509549         0.659284        -2.202682
 H         2.369051         1.872155        -1.088010
 H         4.219995         0.437788        -1.694270
 H         2.228898        -1.411177        -2.423046
 H         3.667278        -2.170315        -1.652480
 H         0.683053        -2.093275         0.693662
 H         4.217046        -0.866913         0.930429
