19
Iteration:  1357
 C        -0.034605         0.226225         0.489334
 C         1.421579         0.058012         0.068425
 C         2.071808         0.810404        -1.284302
 C         3.276645        -0.171580        -1.213084
 C         2.615212        -1.505430        -1.543900
 C         2.153149        -1.381380        -0.044347
 O         1.507079        -2.419610         0.599212
 C         3.285632        -0.464199         0.365422
 O         2.511089         0.371688         1.121398
 H        -0.208249        -0.553898         1.273153
 H        -0.254394         1.263659         0.831759
 H        -0.708193         0.063280        -0.327551
 H         1.622283         0.671571        -2.295794
 H         2.126105         1.957787        -1.056729
 H         4.195491        -0.050940        -1.692949
 H         2.057275        -1.358133        -2.423029
 H         3.470350        -2.245231        -1.459337
 H         1.589155        -3.242168         0.173662
 H         4.282434        -0.765963         0.745075
