19
Iteration:  1572
 C        -0.009196         0.208392         0.620321
 C         1.420335         0.066411         0.040201
 C         2.027180         0.793808        -1.166190
 C         3.373047        -0.183081        -1.219551
 C         2.655539        -1.523286        -1.533118
 C         2.043613        -1.359585        -0.140216
 O         1.454482        -2.409299         0.542978
 C         3.318755        -0.521240         0.273901
 O         2.514413         0.446961         1.074283
 H        -0.132193        -0.581440         1.360834
 H        -0.086660         1.116885         1.179709
 H        -0.764441         0.168443        -0.194303
 H         1.409062         0.653409        -2.065190
 H         2.209649         1.833715        -1.196527
 H         4.208589         0.143889        -1.716204
 H         2.088717        -1.345690        -2.559564
 H         3.305874        -2.431942        -1.498447
 H         2.033983        -3.100240         0.945418
 H         4.206910        -0.995582         0.702639
