19
Iteration:   590charge 0 multiplicity 1
 C        -0.038866         0.144378         0.356041
 C         1.381446         0.077710         0.002497
 C         2.096194         0.805760        -1.199098
 C         3.249674        -0.045373        -1.198902
 C         2.822483        -1.501555        -1.442574
 C         2.114248        -1.406027        -0.128390
 O         1.554587        -2.395299         0.614024
 C         3.214847        -0.546498         0.329166
 O         2.380118         0.363913         1.082763
 H        -0.377484        -0.396999         1.246666
 H        -0.273476         1.215324         0.651721
 H        -0.722184        -0.198341        -0.383643
 H         1.394445         0.750054        -2.059984
 H         2.313516         1.649251        -0.590884
 H         4.141287         0.391538        -1.652249
 H         2.225535        -1.721078        -2.367747
 H         3.739069        -2.101828        -1.342385
 H         2.273088        -2.673046         1.221154
 H         4.180287        -0.917160         0.839511
