19
Iteration:   795
 C        -0.022425         0.181472         0.516650
 C         1.378087        -0.061853        -0.067455
 C         2.075981         0.761317        -1.185588
 C         3.383565        -0.055565        -1.140913
 C         2.766506        -1.575440        -1.508403
 C         2.188745        -1.410164        -0.158501
 O         1.475320        -2.427509         0.569328
 C         3.266258        -0.362753         0.396828
 O         2.302170         0.434745         1.042820
 H        -0.429774        -0.232275         1.485860
 H         0.121620         1.254428         0.605801
 H        -0.884904        -0.134899        -0.298443
 H         1.645174         0.758435        -2.177632
 H         2.124302         1.797462        -0.852850
 H         4.341859         0.255121        -1.502107
 H         2.138947        -1.551610        -2.343479
 H         3.589978        -2.340078        -1.438084
 H         2.133686        -3.131710         0.899404
 H         4.264911        -0.677964         0.931908
