19
Iteration:  3703
 C        -0.091365         0.224610         0.318979
 C         1.370806         0.041113        -0.019296
 C         2.120877         0.783439        -1.297999
 C         3.434722        -0.156638        -1.113222
 C         2.851866        -1.473837        -1.452492
 C         2.045365        -1.392316        -0.109373
 O         1.558597        -2.571618         0.567998
 C         3.202780        -0.454949         0.475158
 O         2.304440         0.428835         1.114751
 H        -0.472841        -0.311194         1.260111
 H        -0.050619         1.303746         0.635187
 H        -0.662628         0.362724        -0.614705
 H         1.558034         0.696447        -2.205313
 H         2.156436         1.799377        -1.095451
 H         4.227333         0.510913        -1.540023
 H         2.274060        -1.503691        -2.441027
 H         3.601614        -2.267414        -1.498377
 H         2.234255        -2.629797         1.186197
 H         4.033702        -0.707885         1.109172
