19
Iteration:  3265
 C        -0.020835         0.319668         0.306663
 C         1.411682         0.065067         0.023142
 C         2.069035         0.790527        -1.248503
 C         3.356924        -0.058519        -1.112081
 C         2.794216        -1.511634        -1.504011
 C         2.107627        -1.423092        -0.066837
 O         1.528581        -2.554550         0.593012
 C         3.271213        -0.466488         0.384265
 O         2.305056         0.373242         1.146726
 H        -0.391589        -0.170719         1.171512
 H        -0.237504         1.472992         0.365872
 H        -0.648235        -0.200063        -0.511347
 H         1.464709         0.444647        -2.086579
 H         1.999457         1.848582        -0.932145
 H         4.125490         0.553991        -1.442530
 H         2.367175        -1.558134        -2.485879
 H         3.437819        -2.381140        -1.533182
 H         2.338016        -3.190734         0.701598
 H         4.257553        -0.671877         0.871638
