19
Iteration:  4375charge 0 multiplicity 1
 C        -0.097843         0.188248         0.315949
 C         1.383388         0.028732        -0.092076
 C         2.156062         0.829850        -1.158391
 C         3.403040        -0.081372        -1.050548
 C         2.764226        -1.580333        -1.481929
 C         2.113931        -1.379944        -0.118588
 O         1.535338        -2.414131         0.580390
 C         3.229735        -0.530116         0.421225
 O         2.321667         0.397049         1.044354
 H        -0.558697        -0.706815         0.776665
 H        -0.043449         0.827647         1.210559
 H        -0.603747         0.514436        -0.590844
 H         1.717698         0.800334        -2.224731
 H         2.383955         1.906371        -0.815112
 H         4.295865         0.209117        -1.535961
 H         2.046007        -1.632181        -2.315676
 H         3.625855        -2.304217        -1.712550
 H         1.863118        -2.421325         1.454035
 H         4.060092        -0.787223         1.066323
