19
Iteration:  3060
 C        -0.131131         0.313488         0.349499
 C         1.400654         0.083720         0.096080
 C         2.021798         0.698147        -1.223637
 C         3.287171        -0.047159        -1.202331
 C         2.921921        -1.538712        -1.483306
 C         2.144870        -1.407382        -0.100803
 O         1.551815        -2.555598         0.571198
 C         3.270310        -0.482531         0.409309
 O         2.397272         0.416419         1.144031
 H        -0.217582         0.032718         1.360424
 H        -0.390517         1.335336         0.466908
 H        -0.671707        -0.125788        -0.526448
 H         1.409856         0.496585        -2.161671
 H         2.287965         1.714568        -1.024259
 H         4.181661         0.315680        -1.658208
 H         2.477392        -1.534213        -2.530082
 H         3.768552        -2.080224        -1.280132
 H         0.608782        -2.749137         0.233722
 H         4.310909        -0.783249         0.886898
