19
Iteration:  3493charge 0 multiplicity 1
 C        -0.010686         0.130258         0.357884
 C         1.376251         0.141018        -0.068026
 C         2.116323         0.789720        -1.206811
 C         3.364440        -0.077620        -1.132139
 C         2.848240        -1.502013        -1.520587
 C         2.094478        -1.403916        -0.118680
 O         1.472537        -2.414416         0.561501
 C         3.206552        -0.536451         0.418038
 O         2.359839         0.385345         1.136257
 H        -0.088907        -0.566327         1.161147
 H        -0.369871         1.121272         0.769137
 H        -0.756580        -0.113985        -0.473019
 H         1.526665         0.835918        -2.100244
 H         2.182890         1.912916        -1.138400
 H         4.378913         0.103227        -1.383707
 H         2.163547        -1.660746        -2.342869
 H         3.518113        -2.456470        -1.469738
 H         1.956699        -2.665684         1.375235
 H         4.153095        -0.699309         1.018848
