19
Iteration:  3507
 C        -0.031539         0.191789         0.366868
 C         1.458145         0.004250         0.015776
 C         2.102524         0.809522        -1.177167
 C         3.389492        -0.101370        -1.111034
 C         2.782777        -1.538897        -1.467809
 C         2.078086        -1.346463        -0.175131
 O         1.475965        -2.439909         0.582475
 C         3.241911        -0.480225         0.387059
 O         2.289758         0.396536         1.058879
 H        -0.229247        -0.522544         1.110919
 H        -0.161255         1.147219         0.752304
 H        -0.603080         0.070219        -0.553855
 H         1.663537         0.517175        -2.166394
 H         2.357430         1.780015        -0.800729
 H         4.169218         0.497603        -1.657710
 H         2.405861        -1.596721        -2.504203
 H         3.672085        -2.069431        -1.308393
 H         2.130735        -2.693408         1.212342
 H         4.009893        -1.063844         0.929964
