19
Iteration:  3158
 C        -0.026960         0.093174         0.323145
 C         1.465242        -0.035480         0.015822
 C         2.103652         0.746185        -1.240572
 C         3.357052        -0.014785        -1.186862
 C         2.854354        -1.494933        -1.453071
 C         2.068531        -1.368776        -0.134943
 O         1.356116        -2.429514         0.616211
 C         3.323966        -0.443173         0.388099
 O         2.365363         0.446535         1.127209
 H        -0.348232        -0.639606         0.987439
 H        -0.204882         1.067801         0.776381
 H        -0.542229         0.082180        -0.682531
 H         1.204702         0.721107        -1.916735
 H         2.172388         1.783797        -0.931515
 H         4.243380         0.348211        -1.624680
 H         2.198806        -1.613390        -2.418440
 H         3.588585        -2.191832        -1.197564
 H         2.153451        -3.057206         0.783824
 H         4.168639        -0.721420         1.130621
