19
Iteration:  1911
 C        -0.028959         0.280875         0.477940
 C         1.376059         0.033769         0.042413
 C         1.999304         0.824663        -1.146722
 C         3.310186        -0.121061        -1.229745
 C         2.745976        -1.508571        -1.568996
 C         2.094863        -1.415722        -0.180297
 O         1.487826        -2.413561         0.630976
 C         3.320372        -0.540294         0.309718
 O         2.511113         0.331705         1.128345
 H        -0.355094        -0.325244         1.372771
 H        -0.247080         1.372173         0.607603
 H        -0.630552        -0.297398        -0.257999
 H         1.334540         0.814585        -2.100863
 H         2.156581         1.950725        -0.930506
 H         4.056830         0.316073        -1.943454
 H         2.040567        -1.370483        -2.378445
 H         3.332457        -2.369201        -1.697173
 H         2.274820        -2.563119         1.237661
 H         4.176212        -1.030332         0.831859
