19
Iteration:  4434
 C        -0.086051         0.239404         0.252148
 C         1.381009         0.078627         0.057264
 C         2.041949         0.730878        -1.132260
 C         3.344989        -0.139091        -1.117826
 C         2.832611        -1.541530        -1.512925
 C         2.125177        -1.345555        -0.117533
 O         1.574920        -2.467743         0.568949
 C         3.260936        -0.538598         0.476516
 O         2.419276         0.424314         1.103270
 H        -0.459103        -0.494755         1.048829
 H        -0.265901         1.291145         0.523444
 H        -0.718123         0.097718        -0.646604
 H         1.449118         0.660525        -2.017705
 H         2.383149         1.735330        -0.976186
 H         4.137314         0.445636        -1.679396
 H         2.272047        -1.537118        -2.473071
 H         3.647765        -2.345132        -1.496398
 H         0.572681        -2.366095         0.516763
 H         4.208741        -0.770990         0.928386
