19
Iteration:  3535charge 0 multiplicity 1
 C        -0.125014         0.319772         0.298002
 C         1.421552         0.050454        -0.009592
 C         2.030558         0.760201        -1.200979
 C         3.344187        -0.119602        -1.121930
 C         2.830355        -1.555460        -1.506068
 C         2.217854        -1.411194        -0.083347
 O         1.501250        -2.505365         0.581261
 C         3.240010        -0.464063         0.423523
 O         2.345075         0.390017         1.127812
 H        -0.282425        -0.433293         1.132965
 H        -0.201341         1.345846         0.916101
 H        -0.709634         0.564789        -0.671398
 H         1.397002         0.594516        -2.067235
 H         2.151925         1.936473        -1.074643
 H         4.170785         0.453235        -1.453115
 H         2.239881        -1.523094        -2.418762
 H         3.877645        -2.165366        -1.598872
 H         2.049663        -3.241219         0.689630
 H         4.179764        -0.817652         0.948817
