19
Iteration:  4178charge 0 multiplicity 1
 C        -0.067426         0.332042         0.396467
 C         1.339340         0.007010        -0.089109
 C         2.128272         0.777481        -1.250974
 C         3.380965        -0.119441        -1.070426
 C         2.865118        -1.549156        -1.481584
 C         2.172406        -1.416020        -0.044142
 O         1.553857        -2.496027         0.516179
 C         3.180554        -0.503637         0.506445
 O         2.265516         0.444106         1.059368
 H        -0.572093        -0.419654         0.950461
 H         0.059677         1.354887         0.842517
 H        -0.752863         0.483465        -0.538847
 H         1.566920         0.629688        -2.153415
 H         2.044876         1.856501        -1.127589
 H         4.270792         0.133449        -1.583244
 H         2.166953        -1.587509        -2.291709
 H         3.671790        -2.321150        -1.397025
 H         2.345264        -3.070020         0.659987
 H         4.026375        -0.734610         1.171062
