19
Iteration:    32charge 0 multiplicity 1
 C        -0.088435         0.171228         0.410826
 C         1.419912         0.125984         0.053364
 C         2.038041         0.724830        -1.279705
 C         3.368946        -0.121333        -1.147616
 C         2.790651        -1.495043        -1.429813
 C         2.135814        -1.367252        -0.019464
 O         1.683955        -2.553827         0.413346
 C         3.178057        -0.462681         0.529782
 O         2.362643         0.532539         1.039861
 H        -0.246627        -0.450184         1.277338
 H        -0.572543         1.099781         0.548284
 H        -0.487280        -0.492832        -0.388092
 H         1.514611         0.547448        -2.126598
 H         2.137661         1.776605        -1.130622
 H         4.289173         0.127805        -1.509225
 H         2.149266        -1.667221        -2.268645
 H         3.569902        -2.308530        -1.448625
 H         0.712427        -2.478637         0.617543
 H         4.016092        -0.880903         1.107057
