19
Iteration:  4529
 C        -0.051861         0.205732         0.270273
 C         1.455271        -0.001065         0.011974
 C         2.074126         0.794725        -1.144439
 C         3.341773        -0.059330        -1.156157
 C         2.736211        -1.521329        -1.435472
 C         2.186216        -1.408799        -0.036517
 O         1.466220        -2.386707         0.530252
 C         3.311015        -0.557180         0.464011
 O         2.382582         0.411018         1.086822
 H        -0.394088         0.189551         1.330526
 H        -0.178883         1.242820        -0.130048
 H        -0.729855        -0.344467        -0.301452
 H         1.394927         0.669285        -2.066244
 H         2.046080         1.957534        -0.822955
 H         4.345778         0.272073        -1.561164
 H         1.975616        -1.563272        -2.200837
 H         3.555566        -2.322541        -1.509724
 H         1.506249        -3.204528        -0.063807
 H         4.201379        -0.881498         1.115361
