19
Iteration:  1014
 C        -0.018080         0.256007         0.369086
 C         1.388176         0.038585        -0.025038
 C         2.027969         0.704970        -1.153560
 C         3.274160        -0.082440        -1.203228
 C         2.738384        -1.473496        -1.500792
 C         2.178411        -1.402575        -0.133433
 O         1.588647        -2.467473         0.667150
 C         3.272722        -0.486874         0.422172
 O         2.373227         0.421131         1.081198
 H        -0.241491        -0.250073         1.246285
 H        -0.086493         1.235966         0.689543
 H        -0.725588         0.018521        -0.418112
 H         1.521201         0.737381        -2.158966
 H         2.292718         1.715849        -0.812042
 H         4.160559         0.372043        -1.744755
 H         1.991182        -1.729845        -2.258453
 H         3.687082        -2.163923        -1.630583
 H         1.411991        -3.275428         0.113232
 H         4.192877        -0.732614         1.044705
