19
Iteration:  4121charge 0 multiplicity 1
 C        -0.102816         0.187416         0.286624
 C         1.385354         0.032323        -0.024881
 C         2.091457         0.702480        -1.230852
 C         3.394218        -0.047553        -1.130493
 C         2.869015        -1.521606        -1.421685
 C         2.134192        -1.344993        -0.039712
 O         1.446123        -2.411701         0.580412
 C         3.251450        -0.510374         0.481564
 O         2.393598         0.448290         1.083259
 H        -0.236256        -0.735866         0.785808
 H        -0.434632         1.021003         0.883525
 H        -0.611104         0.294440        -0.683752
 H         1.489101         0.585955        -2.144096
 H         2.108410         1.683207        -0.808047
 H         4.229812         0.392696        -1.664746
 H         2.299516        -1.869771        -2.298870
 H         3.643256        -2.267060        -1.399621
 H         1.497261        -3.181673        -0.020377
 H         4.237630        -0.638364         1.033013
