19
Iteration:  3399
 C         0.054784         0.363592         0.379813
 C         1.422397         0.000692         0.007122
 C         2.022179         0.745131        -1.181540
 C         3.299266        -0.142065        -1.061985
 C         2.860163        -1.503352        -1.524306
 C         2.038814        -1.359001        -0.161232
 O         1.717067        -2.531384         0.529749
 C         3.175221        -0.522275         0.430041
 O         2.275039         0.379912         1.081412
 H        -0.258513         0.019925         1.477875
 H         0.045268         1.444358         0.437349
 H        -0.825761         0.098255        -0.268163
 H         1.697588         0.665921        -2.255853
 H         2.045943         1.805256        -1.086559
 H         4.228626         0.459852        -1.339311
 H         2.102281        -1.760848        -2.358987
 H         3.627612        -2.220744        -1.456269
 H         0.757298        -2.437370         0.861745
 H         4.171739        -0.818107         0.893605
