19
Iteration:  3940charge 0 multiplicity 1
 C         0.003018         0.156502         0.243655
 C         1.425915         0.033127         0.056975
 C         2.036453         0.711704        -1.138382
 C         3.340815        -0.020524        -1.235464
 C         2.879196        -1.540804        -1.509528
 C         2.163737        -1.392340        -0.132585
 O         1.488095        -2.440690         0.626379
 C         3.218702        -0.508646         0.482084
 O         2.346380         0.392085         1.119373
 H        -0.463211        -0.602609         0.775119
 H        -0.143840         1.084932         0.811271
 H        -0.424112         0.479966        -0.697079
 H         1.511929         0.661432        -2.131414
 H         2.051516         1.874918        -1.130303
 H         4.254006         0.375350        -1.558678
 H         2.330310        -1.456300        -2.429811
 H         3.779093        -2.264300        -1.670895
 H         0.848742        -1.955434         1.143928
 H         4.026009        -0.861901         1.100623
