19
Iteration:  4890
 C         0.011133         0.130090         0.456677
 C         1.478276         0.042913         0.012439
 C         2.105072         0.719910        -1.180244
 C         3.359685        -0.115462        -1.136652
 C         2.733110        -1.475780        -1.544947
 C         2.117661        -1.391970        -0.162306
 O         1.306401        -2.306224         0.574883
 C         3.289305        -0.536620         0.414672
 O         2.468200         0.399586         1.117646
 H        -0.149699        -0.844157         0.936209
 H         0.007506         0.847331         1.282425
 H        -0.611960         0.437300        -0.463811
 H         1.659006         0.937504        -2.122637
 H         2.168625         1.743996        -0.870508
 H         4.279625         0.403668        -1.615745
 H         2.342844        -1.463104        -2.533088
 H         3.359034        -2.338509        -1.500771
 H         1.156515        -2.993755        -0.063155
 H         4.194695        -0.862003         0.901849
