19
Iteration:  4575charge 0 multiplicity 1
 C        -0.018235         0.083709         0.341919
 C         1.404686         0.079041        -0.006214
 C         2.074940         0.847870        -1.201351
 C         3.390986        -0.091476        -1.070565
 C         2.802760        -1.474988        -1.494559
 C         2.077101        -1.351155        -0.152050
 O         1.394812        -2.347891         0.553392
 C         3.267904        -0.634084         0.497841
 O         2.399514         0.406433         1.033505
 H        -0.176161        -0.767793         1.046143
 H        -0.270067         0.990573         0.854845
 H        -0.651804        -0.020101        -0.554078
 H         1.887658         0.880718        -2.341409
 H         2.481129         1.943832        -0.882711
 H         4.277816         0.238032        -1.684198
 H         2.082752        -1.596975        -2.320606
 H         3.542302        -2.397635        -1.297011
 H         1.987500        -2.660768         1.340128
 H         4.053262        -1.211714         0.806458
