19
Iteration:  2359
 C        -0.027681         0.232734         0.369038
 C         1.406349         0.095862         0.029926
 C         2.028585         0.735462        -1.171565
 C         3.272543        -0.125756        -1.212010
 C         2.769419        -1.515146        -1.495266
 C         2.148959        -1.369719        -0.115017
 O         1.555498        -2.391133         0.632424
 C         3.240987        -0.513578         0.429245
 O         2.444175         0.369938         1.089795
 H        -0.397793        -0.724405         0.957515
 H        -0.209672         1.208853         1.041425
 H        -0.608598         0.232065        -0.564878
 H         1.325470         0.523060        -2.032911
 H         2.172809         1.861216        -1.354727
 H         4.227494         0.466400        -1.674149
 H         2.001343        -1.538161        -2.326297
 H         3.573799        -2.248910        -1.327982
 H         1.646705        -3.251472         0.147776
 H         4.141554        -0.829322         0.915049
