19
Iteration:  1646charge 0 multiplicity 1
 C        -0.012247         0.371113         0.479997
 C         1.481623         0.176932         0.100440
 C         2.018232         0.808824        -1.114175
 C         3.257066        -0.186276        -1.252230
 C         2.595473        -1.477010        -1.560027
 C         2.035958        -1.374771        -0.127585
 O         1.678422        -2.685147         0.530241
 C         3.311446        -0.575817         0.345585
 O         2.494202         0.428216         1.082885
 H        -0.077831        -0.053459         1.452213
 H        -0.147532         1.379968         0.831646
 H        -0.767742        -0.004499        -0.308067
 H         1.318055         0.932918        -2.017586
 H         2.187805         1.855228        -1.025462
 H         4.183518         0.114466        -1.751695
 H         1.779907        -1.462398        -2.271251
 H         3.220249        -2.257881        -1.831263
 H         1.048746        -2.403850         1.255483
 H         4.189218        -1.079811         0.729789
