19
Iteration:  1402
 C         0.014896         0.171358         0.550657
 C         1.432058         0.091252         0.016083
 C         1.981021         0.780042        -1.236118
 C         3.297011        -0.136071        -1.200613
 C         2.756625        -1.527663        -1.549038
 C         2.030636        -1.365353        -0.199820
 O         1.416410        -2.370893         0.585987
 C         3.312522        -0.541965         0.381587
 O         2.526601         0.375345         1.105991
 H        -0.153819        -0.620021         1.311975
 H        -0.105743         1.226347         0.830367
 H        -0.672564         0.102175        -0.214995
 H         1.332702         0.649723        -2.122657
 H         2.301459         1.862048        -1.067067
 H         4.212195         0.290541        -1.700064
 H         2.025174        -1.607511        -2.368268
 H         3.627570        -2.207980        -1.453224
 H         2.067869        -2.753370         1.144899
 H         4.309180        -0.836359         0.753243
