19
Iteration:  1472charge 0 multiplicity 1
 C        -0.024363         0.366328         0.555638
 C         1.418312         0.145729         0.114746
 C         2.092578         0.835790        -1.253357
 C         3.271001        -0.149037        -1.201798
 C         2.646373        -1.472431        -1.553929
 C         2.066969        -1.440712        -0.117023
 O         1.712303        -2.617335         0.593949
 C         3.270096        -0.550002         0.307357
 O         2.395389         0.342426         1.070162
 H        -0.151719        -0.054311         1.523917
 H        -0.122671         1.432840         0.486530
 H        -0.761354         0.141309        -0.271100
 H         1.642988         0.743404        -2.245350
 H         2.350682         1.822739        -0.971900
 H         4.180032         0.089184        -1.820969
 H         1.881921        -1.360886        -2.478115
 H         3.308290        -2.340340        -1.452268
 H         0.810019        -2.479952         0.833858
 H         4.190376        -0.600597         0.892651
