19
Iteration:  2198charge 0 multiplicity 1
 C         0.023357         0.247181         0.432612
 C         1.439886         0.054638         0.052589
 C         1.962236         0.706616        -1.140673
 C         3.328045        -0.111264        -1.193689
 C         2.736770        -1.534854        -1.543220
 C         2.100422        -1.381360        -0.057068
 O         1.480499        -2.433068         0.598639
 C         3.283813        -0.479664         0.380441
 O         2.429785         0.423932         1.054195
 H        -0.427494        -0.540527         1.022441
 H        -0.034078         1.258920         0.933651
 H        -0.627545         0.325843        -0.465344
 H         1.470453         0.553931        -2.102628
 H         2.236112         1.818429        -0.886697
 H         4.314655         0.214825        -1.783899
 H         2.054114        -1.535560        -2.490472
 H         3.616820        -2.238496        -1.554619
 H         1.943157        -3.196334         0.288711
 H         4.324367        -0.693569         0.769471
