19
Iteration:   660charge 0 multiplicity 1
 C        -0.039180         0.249591         0.374610
 C         1.368325         0.040829         0.084169
 C         1.955367         0.698551        -1.182506
 C         3.280007        -0.034544        -1.214582
 C         2.951216        -1.576890        -1.486441
 C         2.124462        -1.423208        -0.087183
 O         1.437081        -2.463456         0.545726
 C         3.303183        -0.367595         0.407442
 O         2.420868         0.426115         1.108480
 H        -0.237505        -0.397998         1.200380
 H        -0.270845         1.202876         0.710176
 H        -0.652847        -0.200082        -0.371975
 H         1.429298         0.500148        -2.033691
 H         2.209903         1.718116        -0.907077
 H         4.188391         0.371462        -1.727056
 H         2.415038        -1.608053        -2.429223
 H         3.728947        -2.290342        -1.394609
 H         1.830321        -3.309585         0.317921
 H         4.240153        -0.589493         0.766827
