19
Iteration:  3446
 C         0.048288         0.231170         0.288551
 C         1.424026         0.044751         0.031187
 C         2.004191         0.783817        -1.156735
 C         3.318731        -0.085994        -1.110134
 C         2.750052        -1.556165        -1.438468
 C         2.118868        -1.419192        -0.098441
 O         1.538696        -2.528216         0.476097
 C         3.287044        -0.444849         0.434823
 O         2.400128         0.425218         1.120332
 H        -0.348542        -0.229810         1.295830
 H        -0.417758         1.251943         0.283826
 H        -0.514121        -0.363039        -0.444448
 H         1.478595         0.944653        -2.050910
 H         2.222070         1.817722        -0.960253
 H         4.172599         0.328827        -1.665345
 H         2.310507        -1.602994        -2.459561
 H         3.593947        -2.309959        -1.465646
 H         0.844253        -2.155741         0.977865
 H         4.162377        -0.846770         0.878784
