19
Iteration:  1909charge 0 multiplicity 1
 C        -0.016480         0.282188         0.481840
 C         1.370544         0.036039         0.048723
 C         2.008803         0.813741        -1.149335
 C         3.292683        -0.106344        -1.230783
 C         2.739323        -1.516171        -1.567901
 C         2.110948        -1.423201        -0.188622
 O         1.479134        -2.413487         0.629112
 C         3.316538        -0.535141         0.305887
 O         2.511251         0.334836         1.135276
 H        -0.338143        -0.271974         1.361834
 H        -0.202456         1.313525         0.593125
 H        -0.586069        -0.317407        -0.299436
 H         1.334564         0.857638        -2.077325
 H         2.088394         1.876978        -0.959078
 H         4.067938         0.345548        -1.901676
 H         2.057377        -1.357504        -2.439395
 H         3.373008        -2.388553        -1.713670
 H         2.216225        -2.553476         1.303718
 H         4.209909        -1.027507         0.846605
