19
Iteration:   966charge 0 multiplicity 1
 C        -0.030029         0.238690         0.426237
 C         1.391296         0.043049         0.010858
 C         2.045038         0.722777        -1.180523
 C         3.261043        -0.121838        -1.171892
 C         2.864566        -1.535076        -1.457534
 C         2.151322        -1.379756        -0.092276
 O         1.614931        -2.497543         0.512679
 C         3.226947        -0.485047         0.341447
 O         2.365464         0.463602         1.093416
 H        -0.223740        -0.310852         1.416359
 H        -0.360411         1.289500         0.712261
 H        -0.637027        -0.213684        -0.313033
 H         1.322629         0.548382        -2.039162
 H         2.171689         1.835494        -0.902604
 H         4.151087         0.199423        -1.620409
 H         2.275078        -1.443836        -2.492539
 H         3.575535        -2.383769        -1.525565
 H         0.875449        -2.157602         0.986055
 H         4.182537        -0.781458         0.902662
