19
Iteration:  4053charge 0 multiplicity 1
 C        -0.071432         0.244054         0.252833
 C         1.443108         0.049860         0.030826
 C         2.041295         0.771032        -1.151161
 C         3.375086        -0.058441        -1.139631
 C         2.878376        -1.563637        -1.516149
 C         2.136235        -1.413647        -0.133848
 O         1.414010        -2.454009         0.579139
 C         3.255112        -0.450757         0.384717
 O         2.326424         0.406263         1.183019
 H        -0.304171         0.056447         1.299354
 H        -0.513427         1.089797        -0.106809
 H        -0.437504        -0.488316        -0.341114
 H         1.624343         0.583942        -2.183774
 H         2.176556         1.829571        -0.905690
 H         4.410970         0.459851        -1.192945
 H         2.437181        -1.736295        -2.530291
 H         3.577653        -2.330450        -1.482585
 H         2.183759        -2.909365         1.106551
 H         4.227671        -0.894421         0.756394
