19
Iteration:  3949
 C        -0.059044         0.214550         0.267553
 C         1.464550        -0.000942         0.083513
 C         2.025538         0.714828        -1.174410
 C         3.377038        -0.093291        -1.161160
 C         2.865909        -1.493173        -1.592831
 C         2.154498        -1.378483        -0.060974
 O         1.499051        -2.418346         0.594334
 C         3.296931        -0.469917         0.446119
 O         2.307016         0.386578         1.102998
 H        -0.630512        -0.605330         0.689236
 H        -0.146300         1.143447         0.927794
 H        -0.547555         0.174024        -0.773518
 H         1.454239         0.503656        -2.135375
 H         2.261166         1.789964        -0.842296
 H         4.202250         0.391232        -1.545768
 H         2.212076        -1.812523        -2.423259
 H         3.829813        -2.200708        -1.457089
 H         0.723693        -2.141459         1.079325
 H         4.176340        -0.823561         0.973109
