19
Iteration:   254charge 0 multiplicity 1
 C        -0.052497         0.188960         0.268755
 C         1.407700         0.094774         0.078977
 C         1.955772         0.745234        -1.184099
 C         3.345625        -0.057722        -1.109136
 C         2.784893        -1.446781        -1.524666
 C         2.148977        -1.374922        -0.132725
 O         1.652948        -2.550944         0.597390
 C         3.261046        -0.542151         0.448829
 O         2.406137         0.443198         1.086867
 H        -0.273256        -0.347326         1.235893
 H        -0.261492         1.290609         0.372126
 H        -0.478550        -0.285095        -0.590910
 H         1.300216         0.577134        -1.985311
 H         1.955634         1.810883        -1.040657
 H         4.271731         0.563926        -1.648173
 H         1.986363        -1.575038        -2.399482
 H         3.406618        -2.327512        -1.615929
 H         0.715997        -2.468388         0.942802
 H         4.159543        -0.970748         0.975027
