19
Iteration:   410
 C        -0.036970         0.174648         0.449898
 C         1.350802         0.032274         0.006951
 C         2.106258         0.705869        -1.195031
 C         3.416036        -0.092919        -1.149330
 C         2.740245        -1.471764        -1.597409
 C         2.127138        -1.388596        -0.186921
 O         1.599442        -2.468343         0.581610
 C         3.249015        -0.503423         0.423722
 O         2.295678         0.456799         1.111173
 H        -0.158868        -0.434515         1.329082
 H        -0.196052         1.215157         0.661791
 H        -0.725393        -0.247609        -0.379816
 H         1.498386         0.556261        -2.058544
 H         2.165209         1.729756        -1.055399
 H         4.363377         0.365907        -1.649344
 H         1.961438        -1.279289        -2.380699
 H         3.584544        -2.153198        -1.828677
 H         1.684411        -2.374974         1.520030
 H         4.004822        -0.833128         1.072387
