19
Iteration:   233
 C        -0.135089         0.159675         0.396466
 C         1.383031         0.050880         0.027599
 C         2.094081         0.754853        -1.195046
 C         3.339264        -0.147300        -1.070353
 C         2.694440        -1.479195        -1.471221
 C         2.148741        -1.369651        -0.066380
 O         1.666229        -2.546317         0.446565
 C         3.249024        -0.445465         0.412695
 O         2.401328         0.524150         1.077995
 H        -0.398084        -0.509477         1.260255
 H        -0.532278         1.189954         0.560396
 H        -0.610271        -0.339874        -0.443448
 H         1.723170         0.624637        -2.215382
 H         2.266672         1.811989        -1.033292
 H         4.353252         0.189803        -1.697560
 H         2.188565        -1.597318        -2.486501
 H         3.452538        -2.261141        -1.470357
 H         0.974090        -2.489574         1.065514
 H         4.160424        -0.712833         1.002556
