19
Iteration:  1123charge 0 multiplicity 1
 C         0.005164         0.291902         0.477237
 C         1.424960         0.045268         0.085458
 C         2.003034         0.716811        -1.178238
 C         3.242680        -0.063914        -1.168465
 C         2.779617        -1.542656        -1.524596
 C         2.099703        -1.403333        -0.121682
 O         1.590073        -2.470992         0.610936
 C         3.269435        -0.533271         0.347096
 O         2.438353         0.444644         1.069580
 H        -0.309225        -0.335244         1.271595
 H        -0.239847         1.297728         0.475766
 H        -0.443505        -0.167668        -0.447998
 H         1.296428         0.572396        -2.096789
 H         2.145560         1.797005        -1.114458
 H         4.206359         0.328314        -1.629544
 H         2.108174        -1.532553        -2.319087
 H         3.681783        -2.093740        -1.426959
 H         0.939659        -2.906119        -0.046456
 H         4.204922        -0.832817         0.794159
