19
Iteration:  3859charge 0 multiplicity 1
 C        -0.051462         0.301289         0.280617
 C         1.357181         0.055647         0.059807
 C         1.982578         0.729063        -1.218785
 C         3.453901        -0.064063        -1.071088
 C         2.845006        -1.483336        -1.449411
 C         2.137284        -1.363035        -0.124153
 O         1.472984        -2.519613         0.533715
 C         3.297458        -0.454664         0.429541
 O         2.295161         0.352464         1.073247
 H        -0.419475        -0.098707         1.283527
 H        -0.262336         1.387091         0.304586
 H        -0.648755        -0.231944        -0.476858
 H         1.569592         0.381326        -2.147215
 H         2.152850         1.709261        -0.983164
 H         4.502361         0.206163        -1.501436
 H         2.351057        -1.716367        -2.456518
 H         3.697399        -2.150510        -1.364839
 H         2.133517        -2.861996         1.217330
 H         4.293948        -0.765502         0.874857
