19
Iteration:  4855charge 0 multiplicity 1
 C         0.020857         0.326965         0.417900
 C         1.383460         0.126313         0.025351
 C         2.170077         0.797890        -1.224510
 C         3.359663        -0.096532        -1.120694
 C         2.710010        -1.508722        -1.561182
 C         2.042668        -1.405461        -0.135663
 O         1.538089        -2.505858         0.594497
 C         3.206834        -0.569141         0.385563
 O         2.402115         0.372794         1.148968
 H        -0.443873        -0.617876         0.764856
 H        -0.068018         1.066937         1.240159
 H        -0.668939         0.663877        -0.312383
 H         1.519641         0.817639        -2.090561
 H         2.462465         1.722345        -0.765423
 H         4.272020         0.263806        -1.705775
 H         2.203268        -1.643004        -2.438463
 H         3.416614        -2.238644        -1.380597
 H         1.333618        -3.179638        -0.049181
 H         4.141947        -0.946768         0.747996
