19
Iteration:  4774charge 0 multiplicity 1
 C        -0.064995         0.327170         0.453353
 C         1.391787         0.053329        -0.009100
 C         2.137419         0.828462        -1.151172
 C         3.313961        -0.130193        -1.050461
 C         2.816550        -1.544972        -1.555625
 C         2.110840        -1.415319        -0.124933
 O         1.486733        -2.500382         0.458256
 C         3.218764        -0.530044         0.375513
 O         2.451580         0.348050         1.096441
 H        -0.010677         0.130186         1.497227
 H        -0.402844         1.336108         0.343044
 H        -0.773628        -0.303856        -0.122909
 H         1.618644         1.004250        -2.148708
 H         2.286580         1.934934        -0.890820
 H         4.182996         0.221081        -1.526187
 H         2.398757        -1.423610        -2.485584
 H         3.474110        -2.421481        -1.569496
 H         0.971654        -2.269693         1.201496
 H         4.086691        -1.005821         0.911879
