19
Iteration:  1812
 C         0.021982         0.330461         0.569776
 C         1.440898         0.027598         0.035753
 C         1.990533         0.773465        -1.150875
 C         3.283689        -0.095958        -1.235019
 C         2.703012        -1.525365        -1.568218
 C         2.134598        -1.437750        -0.131766
 O         1.570579        -2.399144         0.652536
 C         3.307841        -0.540752         0.281917
 O         2.423503         0.318797         1.106390
 H        -0.386094        -0.144003         1.540310
 H         0.086331         1.408904         0.904091
 H        -0.843746         0.232088        -0.249427
 H         1.338262         0.845757        -2.130046
 H         2.110748         1.902352        -1.068584
 H         4.128949         0.161685        -1.948096
 H         2.149196        -1.494643        -2.515225
 H         3.532683        -2.153197        -1.799124
 H         1.031329        -3.078425         0.133762
 H         4.297151        -0.945019         0.721144
