19
Iteration:  3452
 C         0.038157         0.210987         0.283446
 C         1.480126         0.004574         0.028843
 C         2.021479         0.780963        -1.101776
 C         3.356738        -0.143562        -1.113071
 C         2.757840        -1.502854        -1.416323
 C         2.083743        -1.355749        -0.117122
 O         1.519138        -2.525304         0.474490
 C         3.259202        -0.436582         0.394342
 O         2.379205         0.434021         1.095952
 H        -0.216424        -0.369965         1.166219
 H        -0.360443         1.190930         0.373221
 H        -0.512287        -0.483132        -0.386634
 H         1.439287         0.743361        -2.125926
 H         2.170451         1.866599        -0.830012
 H         4.211290         0.404397        -1.577094
 H         2.246746        -1.606176        -2.404339
 H         3.405686        -2.366245        -1.396960
 H         0.927047        -2.022871         1.140985
 H         4.285980        -0.758541         0.753130
