19
Iteration:  2720
 C        -0.032049         0.119239         0.475995
 C         1.367704         0.089961        -0.030427
 C         2.066332         0.712918        -1.224168
 C         3.379852        -0.124158        -1.075003
 C         2.804626        -1.531708        -1.475357
 C         2.132475        -1.400908        -0.123031
 O         1.498805        -2.407821         0.559425
 C         3.286969        -0.433417         0.418329
 O         2.327258         0.502097         1.029455
 H        -0.184658        -0.526165         1.289659
 H        -0.290459         1.210789         0.685206
 H        -0.719522        -0.187715        -0.284621
 H         1.799053         0.556840        -2.280590
 H         2.324555         1.776666        -1.073877
 H         4.197403         0.345787        -1.519956
 H         2.152753        -1.546848        -2.405737
 H         3.345877        -2.411347        -1.534638
 H         1.949209        -3.216102         0.392443
 H         4.067663        -0.849355         1.056718
