19
Iteration:  1509
 C         0.036450         0.305945         0.510529
 C         1.436457        -0.016529         0.102265
 C         1.982830         0.780313        -1.154090
 C         3.272554        -0.099847        -1.224509
 C         2.678204        -1.464336        -1.541867
 C         2.078322        -1.404894        -0.140314
 O         1.568993        -2.384069         0.645732
 C         3.321436        -0.582982         0.316757
 O         2.484036         0.339128         1.033364
 H        -0.402745        -0.054309         1.499791
 H        -0.014490         1.429585         0.577279
 H        -0.677165        -0.104489        -0.207968
 H         1.420766         0.658706        -2.084743
 H         2.204155         1.886049        -0.974323
 H         4.074105         0.312560        -1.755800
 H         2.290431        -1.504258        -2.479160
 H         3.315197        -2.359056        -1.494440
 H         0.957438        -2.962783         0.185695
 H         4.250621        -0.961319         0.788851
