19
Iteration:  4420
 C        -0.089799         0.157501         0.213939
 C         1.436728         0.029329         0.002593
 C         2.046024         0.784174        -1.175299
 C         3.347400        -0.089304        -1.114908
 C         2.730832        -1.504723        -1.399851
 C         2.127577        -1.369489        -0.085234
 O         1.558627        -2.364429         0.539475
 C         3.327912        -0.500422         0.363874
 O         2.447428         0.355936         1.158711
 H        -0.594899        -0.657415         0.803794
 H        -0.377590         1.012356         0.838947
 H        -0.461327         0.115752        -0.776420
 H         1.566883         0.621376        -2.177008
 H         2.008318         1.914483        -0.942767
 H         4.369834         0.138977        -1.433663
 H         2.059608        -1.723122        -2.204587
 H         3.420173        -2.405530        -1.147466
 H         0.646652        -2.183861         0.678437
 H         4.091344        -0.944532         0.871433
