19
Iteration:  2033
 C         0.022162         0.315792         0.530359
 C         1.339114        -0.041759        -0.029470
 C         2.087565         0.812014        -1.180827
 C         3.336407        -0.112727        -1.199570
 C         2.700354        -1.551604        -1.560425
 C         2.119955        -1.400882        -0.126176
 O         1.612322        -2.487848         0.605467
 C         3.315866        -0.478084         0.383021
 O         2.345740         0.404465         1.041207
 H         0.107261        -0.435729         1.363143
 H         0.009023         1.372168         0.788074
 H        -0.754584        -0.076610        -0.016622
 H         1.611518         0.682175        -2.157870
 H         2.159697         1.850096        -0.778290
 H         4.239179         0.224395        -1.652189
 H         1.989714        -1.449148        -2.335114
 H         3.387305        -2.335526        -1.621605
 H         0.614297        -2.388745         0.770439
 H         4.189948        -0.791056         0.827829
