19
Iteration:  1460
 C         0.016079         0.409422         0.519230
 C         1.384579         0.008315         0.009960
 C         2.052937         0.821625        -1.163205
 C         3.319190        -0.137826        -1.237146
 C         2.610050        -1.486443        -1.502422
 C         2.118389        -1.414677        -0.093659
 O         1.657091        -2.636580         0.560653
 C         3.304656        -0.490817         0.355590
 O         2.415251         0.407013         1.039770
 H        -0.305061        -0.031193         1.443050
 H        -0.055331         1.444871         0.772350
 H        -0.735246        -0.010407        -0.165341
 H         1.439803         0.925117        -2.078911
 H         2.209397         1.809876        -0.809987
 H         4.377267         0.046956        -1.701768
 H         1.762790        -1.757721        -2.324466
 H         3.420361        -2.101561        -1.889376
 H         0.784294        -2.451602         1.018185
 H         4.217910        -0.890084         0.806982
