19
Iteration:  1144charge 0 multiplicity 1
 C        -0.103306         0.358049         0.391473
 C         1.407262         0.042389         0.118438
 C         1.961070         0.756392        -1.217240
 C         3.348382        -0.097524        -1.237272
 C         2.734636        -1.499635        -1.531025
 C         2.179239        -1.448923        -0.089641
 O         1.521830        -2.525206         0.627887
 C         3.331987        -0.460503         0.369999
 O         2.469540         0.391621         1.115617
 H        -0.160131        -0.263422         1.280171
 H        -0.186600         1.416011         0.563364
 H        -0.953275         0.002019        -0.272514
 H         1.316635         0.567103        -2.183899
 H         1.998775         1.837231        -1.103711
 H         4.270303         0.373303        -1.739085
 H         2.099144        -1.347212        -2.409500
 H         3.417851        -2.264159        -1.477702
 H         1.738295        -3.375122         0.232303
 H         4.224282        -0.777761         0.906469
