19
Iteration:  1891charge 0 multiplicity 1
 C         0.093319         0.249427         0.441296
 C         1.514645         0.016873         0.096245
 C         1.948563         0.780204        -1.142103
 C         3.247727        -0.079686        -1.221978
 C         2.688482        -1.474508        -1.604111
 C         2.115251        -1.406507        -0.069879
 O         1.470142        -2.455534         0.533404
 C         3.309895        -0.528290         0.313089
 O         2.458762         0.344395         1.092380
 H        -0.204334        -0.239521         1.453614
 H        -0.056411         1.422309         0.533858
 H        -0.696886        -0.270984        -0.112534
 H         1.295878         0.553719        -2.017059
 H         2.239437         1.911781        -0.951715
 H         4.189492         0.348385        -1.675830
 H         1.972671        -1.837165        -2.320825
 H         3.568368        -2.105405        -1.550607
 H         1.460345        -2.163993         1.526850
 H         4.289833        -0.702455         0.685493
