19
Iteration:   203
 C         0.025331         0.200335         0.448346
 C         1.390430         0.028233        -0.036867
 C         2.035766         0.847730        -1.191182
 C         3.304439        -0.084012        -1.173691
 C         2.869114        -1.548140        -1.464903
 C         2.241397        -1.458577        -0.108886
 O         1.482735        -2.474590         0.492459
 C         3.196608        -0.429505         0.445299
 O         2.271459         0.398869         1.060360
 H         0.013793        -0.408215         1.323293
 H        -0.178856         1.245888         0.632650
 H        -0.552881        -0.152241        -0.450144
 H         1.383108         0.746622        -2.166258
 H         2.130791         1.925456        -0.912014
 H         4.233271         0.248418        -1.718048
 H         2.383452        -1.811917        -2.378567
 H         3.811570        -2.148208        -1.296627
 H         1.732606        -2.665760         1.454711
 H         4.144522        -0.608314         0.982642
