19
Iteration:  2262charge 0 multiplicity 1
 C        -0.049965         0.237969         0.442613
 C         1.363180         0.040090         0.040808
 C         2.014476         0.731453        -1.119497
 C         3.315104        -0.070672        -1.171422
 C         2.725322        -1.543310        -1.558960
 C         2.221306        -1.429750        -0.157991
 O         1.548323        -2.438741         0.643166
 C         3.272726        -0.512641         0.402542
 O         2.485180         0.423716         1.068154
 H        -0.390929        -0.097077         1.415622
 H        -0.165926         1.313599         0.184934
 H        -0.602444        -0.243125        -0.303386
 H         1.406400         0.684496        -2.014346
 H         2.033589         1.852517        -1.063372
 H         4.302118         0.318855        -1.661213
 H         1.930413        -1.577286        -2.368899
 H         3.497615        -2.299374        -1.565848
 H         0.821160        -2.611123        -0.034031
 H         4.230179        -0.706727         0.843124
