19
Iteration:  3546
 C        -0.025681         0.348472         0.322673
 C         1.400956         0.092746         0.039622
 C         2.048803         0.739918        -1.234555
 C         3.288386        -0.051695        -1.121595
 C         2.851472        -1.495027        -1.481068
 C         2.156179        -1.487577        -0.132464
 O         1.527434        -2.521263         0.587771
 C         3.311127        -0.465071         0.437268
 O         2.302394         0.408977         1.145565
 H        -0.602753        -0.473925         0.832994
 H        -0.199916         1.373268         0.859066
 H        -0.649233         0.268869        -0.648258
 H         1.539421         0.406353        -2.143205
 H         2.083742         1.893886        -1.228883
 H         4.187101         0.235696        -1.616202
 H         2.156534        -1.701500        -2.291074
 H         3.621132        -2.377626        -1.517066
 H         1.970902        -3.364898         0.331374
 H         4.173334        -0.805844         1.078897
