19
Iteration:  3852charge 0 multiplicity 1
 C        -0.092745         0.299517         0.292902
 C         1.380839         0.039827         0.016290
 C         2.013844         0.655353        -1.167732
 C         3.404613        -0.083905        -1.123046
 C         2.903759        -1.484254        -1.522673
 C         2.101865        -1.370947        -0.104307
 O         1.469927        -2.471961         0.533727
 C         3.330949        -0.458206         0.411200
 O         2.317399         0.372342         1.141058
 H        -0.396380        -0.059329         1.210567
 H        -0.219939         1.389490         0.185544
 H        -0.691599        -0.257483        -0.443617
 H         1.476782         0.532234        -2.155403
 H         1.932618         1.816812        -0.944013
 H         4.331100         0.195099        -1.469931
 H         2.512119        -1.586515        -2.513147
 H         3.701128        -2.274255        -1.263509
 H         2.087077        -2.827222         1.151778
 H         4.080449        -0.670129         1.153446
