19
Iteration:  2234
 C         0.022114         0.208962         0.494228
 C         1.402088         0.101310        -0.054552
 C         2.096521         0.801074        -1.183929
 C         3.364595        -0.098815        -1.227507
 C         2.671426        -1.471465        -1.517789
 C         2.099061        -1.352575        -0.125008
 O         1.565682        -2.486133         0.718948
 C         3.229292        -0.516330         0.362047
 O         2.358260         0.381742         1.067020
 H        -0.029092        -0.397663         1.419952
 H        -0.258472         1.264344         0.668251
 H        -0.653310        -0.218841        -0.401706
 H         1.533566         0.883107        -2.163255
 H         2.345300         1.861840        -0.974612
 H         4.294379         0.094211        -1.788028
 H         2.175815        -1.649564        -2.461870
 H         3.435094        -2.340102        -1.406362
 H         1.492624        -3.126743        -0.013527
 H         4.191925        -0.927162         0.925131
