19
Iteration:  1761
 C         0.018895         0.263746         0.496557
 C         1.468144         0.068414         0.049826
 C         2.069058         0.808474        -1.135549
 C         3.259939        -0.103782        -1.254284
 C         2.531723        -1.500283        -1.528367
 C         2.109493        -1.366314        -0.098583
 O         1.517752        -2.511797         0.585812
 C         3.334517        -0.528543         0.376517
 O         2.491069         0.398727         1.032021
 H        -0.173744        -0.490149         1.262601
 H        -0.357381         1.151792         1.047476
 H        -0.519261         0.324046        -0.390772
 H         1.511418         0.856685        -2.036415
 H         2.254468         1.907746        -0.965728
 H         4.257771         0.220696        -1.737713
 H         1.695550        -1.436915        -2.332345
 H         3.166732        -2.500638        -1.573648
 H         2.127043        -3.293395         0.519114
 H         4.330031        -0.795861         0.790019
