19
Iteration:  2599charge 0 multiplicity 1
 C        -0.075155         0.312426         0.349748
 C         1.327132         0.078668         0.003742
 C         2.041590         0.739674        -1.179188
 C         3.359632        -0.163881        -1.199778
 C         2.783866        -1.466561        -1.463684
 C         2.155501        -1.419824        -0.053207
 O         1.622024        -2.584974         0.519987
 C         3.214903        -0.464281         0.445014
 O         2.355399         0.455352         1.048388
 H        -0.577685        -0.362840         1.102916
 H        -0.066715         1.417551         0.704051
 H        -0.638356         0.202993        -0.534439
 H         1.355475         0.675691        -2.033899
 H         2.133581         1.850197        -0.935231
 H         4.358197         0.199550        -1.621409
 H         2.255784        -1.859803        -2.394321
 H         3.555075        -2.195807        -1.181663
 H         2.092269        -2.801977         1.343763
 H         4.136315        -0.615065         0.959259
