19
Iteration:   195
 C         0.000267         0.209294         0.416462
 C         1.369176         0.058380        -0.029833
 C         2.006009         0.761896        -1.218070
 C         3.256353        -0.057328        -1.087155
 C         2.938687        -1.529322        -1.536848
 C         2.221029        -1.457203        -0.127055
 O         1.465716        -2.403233         0.523813
 C         3.256413        -0.488249         0.449224
 O         2.312480         0.387750         1.066044
 H        -0.245499        -0.388083         1.321463
 H        -0.192206         1.249726         0.684829
 H        -0.812826        -0.113508        -0.341709
 H         1.475624         0.651612        -2.204970
 H         2.113637         1.824702        -0.919044
 H         4.068012         0.316711        -1.469524
 H         2.358879        -1.895710        -2.352606
 H         3.932371        -2.069848        -1.422112
 H         2.000777        -2.709996         1.313967
 H         4.202160        -0.751797         0.885782
