19
Iteration:  2238charge 0 multiplicity 1
 C         0.056362         0.225562         0.469364
 C         1.393399         0.081573        -0.048984
 C         2.088446         0.816712        -1.200260
 C         3.323298        -0.138971        -1.203888
 C         2.692786        -1.456981        -1.523709
 C         2.113756        -1.392031        -0.129467
 O         1.554684        -2.483504         0.718584
 C         3.290211        -0.509428         0.350667
 O         2.342735         0.400726         1.071190
 H        -0.010278        -0.432157         1.381120
 H        -0.252329         1.256216         0.599960
 H        -0.585156        -0.264798        -0.259670
 H         1.484350         0.953580        -2.101390
 H         2.274110         1.824373        -0.893902
 H         4.198798         0.160223        -1.713125
 H         2.120187        -1.511395        -2.449904
 H         3.405278        -2.236472        -1.318445
 H         1.385003        -3.157271         0.004334
 H         4.057076        -0.947090         0.896949
