19
Iteration:  3463charge 0 multiplicity 1
 C        -0.029221         0.085940         0.326704
 C         1.417764         0.052337         0.041521
 C         2.121131         0.751024        -1.127901
 C         3.385074        -0.081166        -1.146604
 C         2.775814        -1.472381        -1.483943
 C         2.081051        -1.355549        -0.099977
 O         1.467937        -2.450010         0.486912
 C         3.306139        -0.497442         0.378353
 O         2.370589         0.444902         1.082744
 H        -0.212612        -0.321395         1.290582
 H        -0.259749         1.123462         0.409722
 H        -0.594721        -0.243472        -0.555597
 H         1.482719         0.515850        -2.073181
 H         2.175561         1.819321        -0.818216
 H         4.400254         0.177625        -1.548540
 H         2.020576        -1.567494        -2.280538
 H         3.419353        -2.309377        -1.317672
 H         1.212902        -2.395088         1.394829
 H         4.182021        -0.675110         1.060027
