19
Iteration:  4429charge 0 multiplicity 1
 C        -0.102573         0.204733         0.235865
 C         1.389009         0.058160         0.036902
 C         2.014544         0.752014        -1.137519
 C         3.341657        -0.140307        -1.094875
 C         2.807943        -1.518713        -1.465994
 C         2.138747        -1.325647        -0.100406
 O         1.579033        -2.430901         0.552771
 C         3.269945        -0.553974         0.420438
 O         2.443271         0.399955         1.123000
 H        -0.393152        -0.532048         0.932009
 H        -0.308816         1.234463         0.570711
 H        -0.645458         0.192356        -0.715440
 H         1.445696         0.587230        -2.118595
 H         2.415137         1.808294        -0.947080
 H         4.141538         0.359482        -1.578989
 H         2.251030        -1.710947        -2.386026
 H         3.446883        -2.401214        -1.440052
 H         0.678187        -2.184360         0.500982
 H         4.243185        -0.741371         0.984936
