19
Iteration:  2162
 C        -0.003990         0.292689         0.471773
 C         1.393157         0.080038         0.068664
 C         2.002629         0.710108        -1.201805
 C         3.286281        -0.156567        -1.196546
 C         2.843179        -1.547102        -1.507096
 C         2.110882        -1.395244        -0.077247
 O         1.445648        -2.427654         0.500089
 C         3.288732        -0.502306         0.352784
 O         2.460676         0.409094         1.083766
 H        -0.257738        -0.504034         1.240271
 H        -0.054057         1.182382         1.068019
 H        -0.596112         0.403525        -0.375450
 H         1.280801         0.527854        -2.018258
 H         1.906319         1.751185        -1.017057
 H         4.124854         0.349881        -1.588760
 H         2.112794        -1.721090        -2.371866
 H         3.649256        -2.251600        -1.714492
 H         2.014651        -2.905172         1.063290
 H         4.200464        -0.481394         0.783699
