19
Iteration:   796charge 0 multiplicity 1
 C        -0.019434         0.179205         0.516406
 C         1.366340        -0.060510        -0.059467
 C         2.078701         0.763582        -1.189586
 C         3.386784        -0.058639        -1.140093
 C         2.769440        -1.580088        -1.510600
 C         2.187198        -1.401620        -0.159316
 O         1.475815        -2.431897         0.569530
 C         3.266022        -0.368023         0.398090
 O         2.299653         0.439915         1.040953
 H        -0.422705        -0.211988         1.470115
 H         0.142860         1.233168         0.618496
 H        -0.830369        -0.139364        -0.284184
 H         1.622195         0.762393        -2.174013
 H         2.136332         1.772577        -0.832962
 H         4.366761         0.277848        -1.525835
 H         2.130274        -1.554502        -2.343068
 H         3.584923        -2.334816        -1.441616
 H         2.123449        -3.131426         0.878999
 H         4.244044        -0.652374         0.937318
