19
Iteration:  1291charge 0 multiplicity 1
 C         0.047674         0.371010         0.521770
 C         1.373403         0.098646         0.008604
 C         2.005157         0.759276        -1.193426
 C         3.361139        -0.159620        -1.219778
 C         2.700609        -1.499860        -1.574905
 C         2.080418        -1.426537        -0.129850
 O         1.629238        -2.459245         0.629287
 C         3.263728        -0.527011         0.380744
 O         2.356304         0.346008         1.092548
 H         0.078487        -0.002212         1.550150
 H        -0.150422         1.411364         0.804083
 H        -0.729227        -0.059898        -0.040978
 H         1.559921         0.750995        -2.214121
 H         2.110179         1.908679        -1.112542
 H         4.216015         0.070243        -1.761995
 H         1.972557        -1.536761        -2.429089
 H         3.446291        -2.446961        -1.526701
 H         1.543344        -3.181027        -0.077861
 H         4.134073        -0.660237         1.086816
