19
Iteration:  3258charge 0 multiplicity 1
 C        -0.053894         0.317559         0.258049
 C         1.402096         0.052260         0.106017
 C         2.023862         0.671135        -1.191128
 C         3.401521        -0.092319        -1.120411
 C         2.800853        -1.455614        -1.484685
 C         2.096586        -1.415411        -0.115507
 O         1.542376        -2.531771         0.569153
 C         3.287000        -0.430764         0.388502
 O         2.314140         0.385463         1.131773
 H        -0.304884        -0.049338         1.317098
 H        -0.047416         1.358477         0.284333
 H        -0.721442        -0.058784        -0.502747
 H         1.381214         0.675679        -2.091001
 H         2.084047         1.732827        -1.063910
 H         4.255495         0.569119        -1.504875
 H         2.154346        -1.584693        -2.468229
 H         3.449700        -2.338812        -1.384111
 H         2.227943        -3.258908         0.535961
 H         4.250104        -0.635160         0.919023
