19
Iteration:  3545charge 0 multiplicity 1
 C        -0.033564         0.351949         0.319917
 C         1.405985         0.091168         0.034721
 C         2.056719         0.743961        -1.232702
 C         3.279027        -0.058264        -1.117789
 C         2.856960        -1.499910        -1.482882
 C         2.164245        -1.487662        -0.136250
 O         1.524438        -2.524243         0.589226
 C         3.317301        -0.462757         0.434143
 O         2.302431         0.410033         1.148972
 H        -0.599011        -0.494399         0.860320
 H        -0.211536         1.357245         0.853723
 H        -0.649777         0.290092        -0.630820
 H         1.520966         0.441102        -2.141087
 H         2.052832         1.873290        -1.253209
 H         4.177891         0.261158        -1.605547
 H         2.147539        -1.694477        -2.289121
 H         3.600356        -2.344746        -1.523338
 H         1.962818        -3.340411         0.367282
 H         4.141276        -0.824932         1.070044
