19
Iteration:  4509charge 0 multiplicity 1
 C        -0.029861         0.400290         0.266362
 C         1.400490         0.062750         0.029393
 C         2.044010         0.739532        -1.183357
 C         3.293457        -0.089884        -1.088573
 C         2.847173        -1.493715        -1.466932
 C         2.046258        -1.421734        -0.118510
 O         1.510983        -2.591523         0.581640
 C         3.291199        -0.519878         0.400365
 O         2.425012         0.424184         1.155905
 H        -0.272037         0.289547         1.349666
 H        -0.482982         1.306526        -0.120625
 H        -0.512538        -0.473926        -0.121991
 H         1.499001         0.575006        -2.151776
 H         2.232836         1.862761        -1.072371
 H         4.199277         0.404887        -1.541935
 H         2.284710        -1.528977        -2.362678
 H         3.750307        -2.179725        -1.352668
 H         1.450209        -3.229180        -0.108511
 H         4.096845        -0.646264         0.968046
