19
Iteration:  4656charge 0 multiplicity 1
 C        -0.048829         0.542822         0.386907
 C         1.347486         0.075954         0.036285
 C         2.081126         0.723457        -1.193476
 C         3.367747        -0.150351        -1.111792
 C         2.822334        -1.501716        -1.517179
 C         2.051659        -1.436425        -0.088861
 O         1.677385        -2.607865         0.582090
 C         3.206417        -0.515383         0.433151
 O         2.321112         0.375636         1.069764
 H        -0.517724        -0.360057         0.824500
 H        -0.189653         1.337091         1.187673
 H        -0.724298         0.843448        -0.478067
 H         1.578955         0.693966        -2.182923
 H         2.316759         1.802752        -1.093720
 H         4.352134         0.145375        -1.398408
 H         2.252430        -1.405833        -2.612628
 H         3.648932        -2.251878        -1.600597
 H         1.143916        -3.202825        -0.034039
 H         4.164050        -0.918209         0.967029
