19
Iteration:   151
 C        -0.047475         0.200191         0.281591
 C         1.395221         0.056703         0.018206
 C         2.050729         0.783057        -1.215492
 C         3.291167        -0.075659        -1.143369
 C         2.788243        -1.544169        -1.440973
 C         2.164433        -1.396271        -0.101542
 O         1.619120        -2.444230         0.601278
 C         3.254065        -0.486871         0.443390
 O         2.313574         0.423478         1.127464
 H        -0.259743        -0.598247         1.007479
 H        -0.206892         1.165638         0.740300
 H        -0.635368         0.010446        -0.706237
 H         1.413933         0.621936        -2.120901
 H         2.257328         1.850498        -1.033918
 H         4.070920         0.400177        -1.511504
 H         2.151037        -1.501689        -2.288649
 H         3.623107        -2.318166        -1.494974
 H         1.649303        -3.237474         0.023941
 H         4.190791        -0.666515         0.972867
