19
Iteration:  4930charge 0 multiplicity 1
 C         0.004667         0.323719         0.437814
 C         1.384064         0.062882         0.055927
 C         2.121507         0.770935        -1.139832
 C         3.295100        -0.141681        -1.192976
 C         2.732732        -1.523694        -1.519774
 C         2.065485        -1.362121        -0.105443
 O         1.438199        -2.425527         0.411344
 C         3.275625        -0.545582         0.415275
 O         2.474867         0.376216         1.158519
 H        -0.228722        -0.232510         1.376310
 H        -0.294822         1.343687         0.704965
 H        -0.690850        -0.008301        -0.237014
 H         1.524686         0.664004        -2.147383
 H         2.483945         1.798862        -0.865493
 H         4.312014         0.244870        -1.501627
 H         2.066407        -1.665341        -2.428491
 H         3.535613        -2.319482        -1.468991
 H         1.947230        -3.279374         0.396185
 H         4.115495        -0.932229         0.980879
