19
Iteration:   433
 C        -0.033920         0.194337         0.384791
 C         1.351173         0.050259         0.010514
 C         2.062464         0.895600        -1.225036
 C         3.274852        -0.079397        -1.153542
 C         2.731596        -1.535617        -1.415752
 C         2.113338        -1.394424        -0.115990
 O         1.651804        -2.553438         0.516968
 C         3.310721        -0.467501         0.378141
 O         2.378703         0.387230         1.064587
 H        -0.197064        -0.425445         1.259930
 H        -0.275499         1.211900         0.590460
 H        -0.636256        -0.261473        -0.465650
 H         1.544969         1.123586        -2.150249
 H         2.336203         1.795665        -0.761644
 H         4.213418         0.226525        -1.578652
 H         1.962117        -1.765907        -2.133183
 H         3.589290        -2.287581        -1.286413
 H         0.980047        -2.448183         1.273824
 H         4.211274        -0.638325         0.922337
