19
Iteration:  1771
 C         0.018310         0.282591         0.462419
 C         1.433685         0.091375         0.072653
 C         2.006473         0.836295        -1.184235
 C         3.255017        -0.107495        -1.216918
 C         2.561378        -1.472677        -1.522601
 C         2.068161        -1.371429        -0.092787
 O         1.530674        -2.502339         0.627336
 C         3.334733        -0.539058         0.325774
 O         2.558928         0.352537         1.068276
 H        -0.400870        -0.602722         0.959156
 H         0.022177         1.285110         0.951754
 H        -0.611688         0.140963        -0.346849
 H         1.502987         0.727978        -2.127073
 H         2.243509         1.888037        -0.797476
 H         4.232472         0.140503        -1.798718
 H         1.687084        -1.747612        -2.229922
 H         3.399545        -2.274309        -1.735950
 H         2.145240        -3.096482         0.182112
 H         4.148496        -0.862521         1.027532
