19
Iteration:  4349
 C        -0.059334         0.384833         0.331352
 C         1.408780         0.093276         0.010341
 C         2.067128         0.706969        -1.260065
 C         3.377721        -0.125181        -1.126998
 C         2.903937        -1.517923        -1.467572
 C         2.071911        -1.381821        -0.109839
 O         1.551881        -2.519461         0.527663
 C         3.165881        -0.493694         0.437855
 O         2.274823         0.387749         1.154300
 H        -0.476471        -0.502208         0.777584
 H        -0.134737         1.083958         1.147461
 H        -0.571447         0.469932        -0.629011
 H         1.409614         0.581075        -2.145671
 H         2.240371         1.759629        -1.080547
 H         4.398183         0.095871        -1.535190
 H         2.416309        -1.678041        -2.480456
 H         3.755563        -2.102499        -1.399425
 H         2.256443        -2.944636         0.978136
 H         4.170665        -0.818067         1.016648
