19
Iteration:   201charge 0 multiplicity 1
 C         0.023505         0.201321         0.439314
 C         1.374950         0.034265        -0.033045
 C         2.031154         0.837007        -1.202321
 C         3.282936        -0.087242        -1.143556
 C         2.887375        -1.545206        -1.484662
 C         2.250447        -1.462714        -0.110888
 O         1.478014        -2.456144         0.498129
 C         3.202690        -0.439432         0.449582
 O         2.277973         0.394546         1.058187
 H        -0.005552        -0.410195         1.338836
 H        -0.183578         1.268720         0.641747
 H        -0.542791        -0.121690        -0.415458
 H         1.410211         0.727581        -2.129454
 H         2.103997         1.890443        -0.907849
 H         4.285948         0.286937        -1.743714
 H         2.352396        -1.858558        -2.418744
 H         3.812375        -2.086655        -1.294036
 H         1.779007        -2.681284         1.435569
 H         4.180420        -0.652455         0.953213
