19
Iteration:  2098charge 0 multiplicity 1
 C        -0.001217         0.247142         0.386960
 C         1.492975         0.005915         0.093219
 C         2.014659         0.790802        -1.123334
 C         3.259723        -0.148749        -1.267062
 C         2.714003        -1.511581        -1.577107
 C         2.087916        -1.385357        -0.078375
 O         1.523737        -2.440916         0.557249
 C         3.321915        -0.524331         0.377486
 O         2.437554         0.419161         1.106977
 H        -0.461509        -0.224624         1.338911
 H        -0.304083         1.301610         0.314916
 H        -0.542280        -0.260194        -0.351098
 H         1.537017         0.778157        -2.132931
 H         2.138057         1.894310        -0.877633
 H         4.246542         0.094763        -1.659180
 H         1.868964        -1.496507        -2.379147
 H         3.413927        -2.349409        -1.691813
 H         1.765112        -2.521354         1.507822
 H         4.215087        -0.721851         0.900392
