19
Iteration:  2648charge 0 multiplicity 1
 C        -0.027605         0.232097         0.318683
 C         1.396065        -0.005239         0.046001
 C         2.053644         0.696892        -1.245131
 C         3.371034         0.007362        -1.151611
 C         2.843084        -1.450701        -1.511564
 C         2.096094        -1.411911        -0.107322
 O         1.495002        -2.395382         0.688230
 C         3.279925        -0.529343         0.415495
 O         2.333049         0.380021         1.073350
 H        -0.351615        -0.217232         1.255621
 H        -0.202663         1.278504         0.282878
 H        -0.677713        -0.390056        -0.402914
 H         1.407022         0.536368        -2.128518
 H         2.117645         1.758645        -1.063851
 H         4.184669         0.358249        -1.840092
 H         2.206287        -1.438785        -2.382777
 H         3.558878        -2.289276        -1.763894
 H         2.209130        -3.007315         0.926502
 H         4.083264        -0.974006         1.104814
