19
Iteration:  4488charge 0 multiplicity 1
 C        -0.082549         0.456839         0.419706
 C         1.320636         0.062911         0.058446
 C         2.066830         0.714540        -1.192257
 C         3.446296        -0.171389        -1.114581
 C         2.866558        -1.546010        -1.527474
 C         2.121450        -1.378604        -0.169792
 O         1.638584        -2.526722         0.539780
 C         3.158630        -0.534482         0.457601
 O         2.294080         0.424603         1.095977
 H        -0.250319         0.478967         1.547235
 H        -0.334389         1.478443         0.160885
 H        -0.748951        -0.310034         0.021008
 H         1.576129         0.600668        -2.163306
 H         2.277780         1.793695        -1.125802
 H         4.383277         0.227786        -1.609799
 H         2.287404        -1.702897        -2.445690
 H         3.673096        -2.285657        -1.239187
 H         1.417413        -3.169403        -0.185044
 H         3.955975        -0.889671         1.033575
