19
Iteration:  3995
 C        -0.002914         0.285258         0.368956
 C         1.406144         0.136850        -0.005433
 C         2.094625         0.730684        -1.186541
 C         3.321284        -0.143773        -1.116609
 C         2.802845        -1.510536        -1.432731
 C         2.079783        -1.439699        -0.173143
 O         1.616585        -2.608870         0.476578
 C         3.235839        -0.523957         0.493361
 O         2.251295         0.522933         1.070727
 H        -0.216810        -0.242852         1.272535
 H        -0.303239         1.345778         0.479273
 H        -0.564575        -0.322413        -0.385012
 H         1.700386         0.601255        -2.245050
 H         2.323689         1.873780        -0.949960
 H         4.329321         0.086032        -1.460751
 H         2.484754        -1.383585        -2.468982
 H         3.666379        -2.275472        -1.265207
 H         1.190851        -2.239860         1.209393
 H         4.181255        -0.655693         1.018490
