19
Iteration:  4556charge 0 multiplicity 1
 C        -0.030457         0.067728         0.342305
 C         1.461304         0.139816        -0.031612
 C         2.230901         0.807771        -1.179508
 C         3.393758        -0.129745        -1.136492
 C         2.744436        -1.520011        -1.545833
 C         2.057591        -1.388588        -0.109587
 O         1.382567        -2.372546         0.594422
 C         3.216192        -0.461014         0.385170
 O         2.398513         0.392206         1.149331
 H        -0.255101        -0.518502         1.225723
 H        -0.581799         0.996142         0.528847
 H        -0.579251        -0.431431        -0.564441
 H         1.551520         0.771749        -2.028765
 H         2.314385         1.855097        -0.910929
 H         4.380380         0.143137        -1.465245
 H         2.099422        -1.343621        -2.476061
 H         3.551229        -2.204341        -1.348744
 H         1.995599        -3.188245         0.744762
 H         4.071456        -0.744331         1.043531
