19
Iteration:  2743
 C        -0.059430         0.276013         0.408370
 C         1.417633        -0.001164        -0.017788
 C         2.012049         0.728375        -1.252713
 C         3.340771        -0.062459        -1.162168
 C         2.896652        -1.481504        -1.462562
 C         2.127431        -1.470568        -0.165972
 O         1.493600        -2.425510         0.614421
 C         3.251110        -0.460395         0.446018
 O         2.336618         0.381068         1.100449
 H        -0.391663        -0.302542         1.240572
 H        -0.032449         1.356931         0.664769
 H        -0.891233         0.177340        -0.347630
 H         1.381862         0.517916        -2.168026
 H         2.053748         1.808635        -1.007583
 H         4.167488         0.296623        -1.748018
 H         2.353200        -1.645711        -2.450765
 H         3.725183        -2.122165        -1.566819
 H         2.219902        -3.111375         0.770406
 H         4.224569        -0.769537         1.001112
