19
Iteration:  4172
 C        -0.115401         0.351735         0.365849
 C         1.330986         0.043909        -0.097692
 C         2.098209         0.767630        -1.275473
 C         3.408690        -0.136062        -1.115151
 C         2.893020        -1.518468        -1.410656
 C         2.182818        -1.416742        -0.075572
 O         1.544458        -2.527872         0.540305
 C         3.220672        -0.461590         0.518552
 O         2.266284         0.414735         1.075666
 H        -0.439985        -0.511601         1.061322
 H         0.042702         1.264997         0.943488
 H        -0.791034         0.627215        -0.367404
 H         1.504068         0.538899        -2.225793
 H         2.228488         1.871025        -1.121818
 H         4.288997         0.349215        -1.684012
 H         2.200694        -1.558866        -2.308756
 H         3.620704        -2.315395        -1.560775
 H         2.079438        -3.284352         0.665516
 H         3.995100        -0.901403         1.165855
