19
Iteration:  4655
 C        -0.043308         0.543947         0.388550
 C         1.338074         0.067181         0.038443
 C         2.072702         0.719119        -1.187192
 C         3.374562        -0.147725        -1.107795
 C         2.815411        -1.513005        -1.521992
 C         2.036918        -1.440307        -0.092304
 O         1.683557        -2.611122         0.580322
 C         3.212532        -0.510455         0.432351
 O         2.326070         0.389257         1.072629
 H        -0.518704        -0.351104         0.798246
 H        -0.164453         1.321201         1.186821
 H        -0.701033         0.846056        -0.513029
 H         1.571536         0.695086        -2.213360
 H         2.341878         1.840767        -1.091940
 H         4.344979         0.168991        -1.370618
 H         2.286648        -1.394240        -2.614443
 H         3.678845        -2.239726        -1.589879
 H         1.108986        -3.191588        -0.049403
 H         4.150963        -0.942531         0.959136
