19
Iteration:  3374charge 0 multiplicity 1
 C        -0.082104         0.340975         0.406589
 C         1.407244         0.077271        -0.001502
 C         2.035674         0.754179        -1.225780
 C         3.369877        -0.107445        -1.156241
 C         2.863212        -1.482446        -1.504864
 C         2.111572        -1.416126        -0.101765
 O         1.609466        -2.629515         0.562206
 C         3.278737        -0.457008         0.440962
 O         2.339003         0.377328         1.078776
 H        -0.390409        -0.281336         1.195720
 H        -0.290814         1.381281         0.792806
 H        -0.858965         0.203680        -0.421179
 H         1.664573         0.825917        -2.285095
 H         2.130208         1.875401        -0.940827
 H         4.105918         0.370009        -1.728722
 H         2.089527        -1.643637        -2.273212
 H         3.730827        -2.235734        -1.527105
 H         0.695263        -2.403533         0.792906
 H         4.081322        -0.746354         1.190404
