19
Iteration:  4320
 C        -0.097835         0.452824         0.324265
 C         1.386291        -0.030454         0.002426
 C         1.965197         0.649219        -1.191864
 C         3.400502        -0.033796        -1.064605
 C         2.920832        -1.491909        -1.428544
 C         2.182324        -1.461692        -0.051080
 O         1.464190        -2.528834         0.483699
 C         3.279130        -0.483120         0.456219
 O         2.346443         0.417196         1.045017
 H        -0.513205        -0.153599         1.127053
 H        -0.061416         1.549094         0.599573
 H        -0.791221         0.216635        -0.539061
 H         1.385823         0.525727        -2.174513
 H         1.969059         1.760535        -0.981310
 H         4.334023         0.257746        -1.443245
 H         2.319777        -1.610757        -2.369544
 H         3.866361        -2.123864        -1.277630
 H         1.826765        -3.405236         0.339843
 H         4.187054        -0.610738         1.039450
