19
Iteration:  1242charge 0 multiplicity 1
 C        -0.005342         0.214658         0.472312
 C         1.474930         0.030639         0.082721
 C         2.044464         0.756710        -1.213414
 C         3.209212        -0.101797        -1.284554
 C         2.703651        -1.502320        -1.499795
 C         2.138029        -1.435902        -0.096639
 O         1.506975        -2.469990         0.583159
 C         3.366826        -0.462998         0.421316
 O         2.482479         0.420413         1.092986
 H        -0.381784        -0.435769         1.313951
 H        -0.240505         1.257505         0.818790
 H        -0.634491         0.001636        -0.524152
 H         1.252683         0.808233        -2.003974
 H         2.213706         1.795320        -1.023002
 H         4.158729         0.231434        -1.837108
 H         2.063261        -1.627340        -2.384903
 H         3.550437        -2.138928        -1.452739
 H         0.601847        -2.490166         0.277367
 H         4.347894        -0.765085         0.760786
