19
Iteration:  1127
 C        -0.012772         0.281174         0.460500
 C         1.417066         0.095927         0.049465
 C         1.987760         0.712674        -1.162352
 C         3.252956        -0.069473        -1.139219
 C         2.778915        -1.525513        -1.559873
 C         2.085621        -1.425436        -0.122647
 O         1.570696        -2.493914         0.629463
 C         3.311311        -0.505898         0.350859
 O         2.457959         0.422374         1.076077
 H        -0.465423        -0.177621         1.360920
 H        -0.301515         1.368702         0.578707
 H        -0.403212        -0.116279        -0.465432
 H         1.356398         0.486084        -1.998719
 H         2.116780         1.807241        -1.182098
 H         4.133700         0.285613        -1.619994
 H         2.054600        -1.618059        -2.427437
 H         3.754379        -2.184187        -1.496739
 H         1.095630        -2.983130        -0.024698
 H         4.289838        -0.651041         0.816043
