19
Iteration:  1483charge 0 multiplicity 1
 C         0.000781         0.408349         0.516182
 C         1.403630         0.117989         0.052933
 C         2.090194         0.789551        -1.203399
 C         3.270922        -0.106571        -1.210030
 C         2.636726        -1.548769        -1.577300
 C         2.054411        -1.412384        -0.159969
 O         1.730347        -2.524087         0.598819
 C         3.226528        -0.553957         0.350231
 O         2.443049         0.357586         1.130197
 H        -0.195122        -0.061723         1.461093
 H        -0.310976         1.390967         0.764424
 H        -0.686846        -0.223954        -0.124694
 H         1.400743         0.684567        -2.051393
 H         2.363059         1.803616        -1.225345
 H         4.181954         0.431405        -1.577983
 H         2.058751        -1.557099        -2.641964
 H         3.250416        -2.469332        -1.664423
 H         0.800507        -2.766742         0.752796
 H         4.111607        -1.065096         0.763340
