19
Iteration:   787
 C        -0.079907         0.214398         0.453421
 C         1.455516        -0.058507        -0.076621
 C         2.040148         0.767427        -1.190116
 C         3.308950        -0.061786        -1.130698
 C         2.801599        -1.490550        -1.481367
 C         2.170812        -1.469326        -0.100897
 O         1.485555        -2.389677         0.567888
 C         3.297381        -0.407434         0.386170
 O         2.337323         0.381589         1.063444
 H        -0.068483        -0.377588         1.354569
 H        -0.331433         1.274061         0.591379
 H        -0.937585         0.091296        -0.121777
 H         1.682161         0.627376        -2.227872
 H         2.084690         1.818031        -1.036717
 H         4.336075         0.265789        -1.562339
 H         2.183935        -1.657628        -2.412089
 H         3.553999        -2.273473        -1.606153
 H         2.138865        -3.004609         1.038749
 H         4.186179        -0.728157         0.901422
