19
Iteration:  2056
 C        -0.038422         0.262904         0.405796
 C         1.440022         0.064504         0.131864
 C         2.031395         0.814826        -1.205809
 C         3.279032        -0.138578        -1.233744
 C         2.670477        -1.491767        -1.551274
 C         2.138425        -1.416136        -0.107903
 O         1.621295        -2.510011         0.589691
 C         3.257793        -0.541919         0.374422
 O         2.463851         0.402498         1.087057
 H        -0.398358        -0.199819         1.351292
 H        -0.124043         1.360859         0.316718
 H        -0.599318        -0.237594        -0.344543
 H         1.223667         0.729369        -1.927549
 H         2.367719         1.832939        -0.907779
 H         4.247115         0.215499        -1.656777
 H         2.072755        -1.472779        -2.396673
 H         3.371942        -2.263912        -1.451904
 H         0.841446        -2.207343         1.001334
 H         4.233642        -0.854256         0.768721
