19
Iteration:   746charge 0 multiplicity 1
 C        -0.062359         0.156043         0.271420
 C         1.378498         0.062743         0.065304
 C         2.036253         0.729509        -1.137367
 C         3.287597        -0.094944        -1.140569
 C         2.764300        -1.515013        -1.469223
 C         2.096269        -1.344544        -0.115375
 O         1.546362        -2.423273         0.563820
 C         3.299610        -0.499669         0.342951
 O         2.434504         0.434895         1.136879
 H        -0.198695        -0.468259         1.155291
 H        -0.366661         1.262808         0.647598
 H        -0.704286        -0.262931        -0.551988
 H         1.374798         0.718871        -2.111591
 H         2.120429         1.859011        -0.962015
 H         4.241918         0.230095        -1.710658
 H         2.145756        -1.701150        -2.454984
 H         3.614166        -2.159379        -1.375701
 H         2.214761        -2.948910         0.922506
 H         4.194090        -0.806770         0.769029
