19
Iteration:   822charge 0 multiplicity 1
 C        -0.067621         0.182628         0.421195
 C         1.390581         0.146893        -0.030239
 C         2.043320         0.730414        -1.219523
 C         3.289698        -0.089920        -1.181067
 C         2.804866        -1.524972        -1.443468
 C         2.143954        -1.379012        -0.130746
 O         1.517993        -2.498993         0.571968
 C         3.247674        -0.475197         0.459798
 O         2.413626         0.476412         1.084803
 H        -0.315712        -0.446095         1.232171
 H        -0.298951         1.167369         0.839391
 H        -0.592386        -0.146231        -0.344500
 H         1.453225         0.437394        -2.130242
 H         2.154625         1.829154        -1.139654
 H         4.296492         0.194415        -1.592653
 H         2.288575        -1.589602        -2.461059
 H         3.670263        -2.122763        -1.294269
 H         2.042342        -3.335989         0.334066
 H         4.096285        -0.873746         0.880767
