19
Iteration:   767
 C        -0.012452         0.152346         0.414148
 C         1.431838         0.114324         0.048368
 C         1.972395         0.713212        -1.199196
 C         3.330947        -0.034349        -1.223059
 C         2.854127        -1.502635        -1.533247
 C         2.113765        -1.378877        -0.152926
 O         1.486668        -2.432727         0.620523
 C         3.234147        -0.507745         0.440894
 O         2.393621         0.382072         1.113518
 H        -0.496896        -0.401991         1.190353
 H        -0.308132         1.305137         0.386398
 H        -0.435218        -0.051334        -0.534735
 H         1.339495         0.605176        -2.132257
 H         2.113685         1.828062        -1.179813
 H         4.326100         0.410966        -1.619306
 H         2.289509        -1.610897        -2.568616
 H         3.603216        -2.279462        -1.448079
 H         2.233036        -2.914469         1.104534
 H         4.083260        -0.919850         0.863830
