19
Iteration:  2199charge 0 multiplicity 1
 C         0.016406         0.245451         0.440286
 C         1.441827         0.059943         0.046083
 C         1.956308         0.708428        -1.142630
 C         3.326443        -0.118519        -1.185199
 C         2.731260        -1.532363        -1.545763
 C         2.111511        -1.374867        -0.058316
 O         1.485815        -2.429914         0.599242
 C         3.280392        -0.482105         0.375993
 O         2.425895         0.425673         1.058049
 H        -0.416014        -0.535698         1.045733
 H        -0.066133         1.262224         0.941270
 H        -0.630233         0.329213        -0.506913
 H         1.490321         0.559742        -2.115273
 H         2.284289         1.798344        -0.889470
 H         4.311668         0.176630        -1.778793
 H         2.091867        -1.545325        -2.504440
 H         3.613134        -2.256910        -1.566091
 H         1.944009        -3.219753         0.269568
 H         4.348730        -0.734393         0.770686
