19
Iteration:   349
 C        -0.066850         0.153423         0.389121
 C         1.377059         0.040711         0.014927
 C         2.008435         0.749828        -1.169687
 C         3.280910        -0.121787        -1.208603
 C         2.802160        -1.527008        -1.458384
 C         2.198942        -1.475859        -0.067053
 O         1.572290        -2.443186         0.525216
 C         3.271815        -0.423731         0.481044
 O         2.394116         0.518049         1.088259
 H        -0.398447        -0.500466         1.243478
 H        -0.148063         1.215886         0.734051
 H        -0.699360         0.042578        -0.464014
 H         1.262363         0.684908        -2.040516
 H         2.355152         1.841245        -0.977873
 H         4.122929         0.154133        -1.679395
 H         2.158943        -1.757349        -2.295961
 H         3.576513        -2.264004        -1.566273
 H         1.513162        -2.984005        -0.237903
 H         4.261068        -0.539055         1.039535
