19
Iteration:  1542charge 0 multiplicity 1
 C         0.059618         0.177767         0.547472
 C         1.487800         0.096991         0.078120
 C         2.002077         0.879617        -1.201356
 C         3.247158        -0.174331        -1.284483
 C         2.629911        -1.541279        -1.507567
 C         2.134640        -1.438182        -0.083980
 O         1.433332        -2.424756         0.553809
 C         3.322032        -0.527954         0.401461
 O         2.508127         0.468715         1.071957
 H        -0.096756        -0.629526         1.326873
 H        -0.151486         1.235173         0.879115
 H        -0.618235         0.056245        -0.297599
 H         1.310878         0.713648        -2.026125
 H         2.412587         1.923494        -1.113544
 H         4.111660         0.100869        -1.822060
 H         2.048927        -1.445668        -2.382755
 H         3.385602        -2.357991        -1.521955
 H         1.562935        -3.258075         0.131919
 H         4.305857        -0.871910         0.763874
