19
Iteration:  1038charge 0 multiplicity 1
 C        -0.070655         0.225172         0.377819
 C         1.412771         0.076906         0.095859
 C         1.968909         0.785002        -1.197034
 C         3.333962        -0.109386        -1.233311
 C         2.756646        -1.519454        -1.484614
 C         2.136516        -1.361202        -0.112836
 O         1.529637        -2.464652         0.599911
 C         3.304445        -0.493082         0.368054
 O         2.414754         0.395580         1.128563
 H        -0.557367        -0.340178         1.103425
 H        -0.246895         1.233257         0.671945
 H        -0.471188         0.071468        -0.675772
 H         1.270572         0.656928        -2.013677
 H         2.281427         1.784939        -1.038172
 H         4.273157         0.335877        -1.702572
 H         2.187505        -1.784515        -2.350584
 H         3.594151        -2.333523        -1.538999
 H         2.127983        -3.178636         0.742952
 H         4.250376        -0.750101         0.726263
