19
Iteration:  3410charge 0 multiplicity 1
 C        -0.062397         0.406697         0.402671
 C         1.337117         0.057115         0.001019
 C         2.043720         0.700243        -1.211318
 C         3.375700        -0.063442        -1.091258
 C         2.828755        -1.520349        -1.496502
 C         2.104193        -1.420226        -0.154425
 O         1.669555        -2.536501         0.534716
 C         3.265001        -0.481872         0.380354
 O         2.313660         0.350462         1.124326
 H        -0.271211        -0.011736         1.485818
 H        -0.157268         1.486996         0.370417
 H        -0.707962        -0.115547        -0.346608
 H         1.493504         0.538719        -2.180502
 H         2.205219         1.685269        -0.834446
 H         4.284732         0.303038        -1.669442
 H         2.356473        -1.519647        -2.568736
 H         3.520666        -2.317342        -1.440794
 H         0.793978        -2.532848         0.872200
 H         3.985536        -0.849021         1.141155
