19
Iteration:   176charge 0 multiplicity 1
 C        -0.140703         0.219743         0.394159
 C         1.340543        -0.041063         0.034143
 C         1.984691         0.677071        -1.228260
 C         3.461660        -0.032175        -1.131954
 C         2.957033        -1.442624        -1.514948
 C         2.094680        -1.373304        -0.164812
 O         1.482154        -2.372938         0.631072
 C         3.223023        -0.491532         0.371437
 O         2.398741         0.365252         1.104685
 H        -0.389445        -0.472571         1.241430
 H        -0.219208         1.286974         0.681800
 H        -0.656352         0.043267        -0.517685
 H         1.446551         0.300184        -2.017280
 H         1.889162         1.750949        -1.209603
 H         4.343374         0.544811        -1.548616
 H         2.539762        -1.342587        -2.555781
 H         3.613668        -2.278509        -1.337598
 H         2.148594        -3.136985         0.805152
 H         4.068071        -0.927705         0.912877
