19
Iteration:  4880
 C         0.030748         0.153192         0.491261
 C         1.397627         0.095486         0.004490
 C         2.082873         0.826146        -1.218706
 C         3.423857        -0.152445        -1.106415
 C         2.757264        -1.517548        -1.565638
 C         2.088788        -1.354504        -0.148917
 O         1.394404        -2.301017         0.553043
 C         3.330921        -0.582219         0.474558
 O         2.416801         0.348873         1.082949
 H        -0.441495        -0.791609         0.770299
 H        -0.172274         0.892882         1.264129
 H        -0.730465         0.489137        -0.348016
 H         1.427077         0.724120        -2.027093
 H         2.421171         1.769267        -0.857736
 H         4.230244         0.138187        -1.821949
 H         1.975044        -1.531148        -2.377020
 H         3.481362        -2.361913        -1.596916
 H         1.162221        -3.014926         0.014585
 H         4.259755        -0.855763         0.981996
