19
Iteration:   649
 C         0.027898         0.202247         0.426754
 C         1.486018        -0.023574        -0.006501
 C         1.916311         0.697391        -1.213661
 C         3.324980        -0.039035        -1.133727
 C         2.817122        -1.522747        -1.425447
 C         2.203695        -1.411738        -0.103606
 O         1.419685        -2.467517         0.510372
 C         3.302825        -0.407327         0.428905
 O         2.364528         0.444949         1.064147
 H        -0.260750        -0.272135         1.332516
 H        -0.051802         1.240651         0.502296
 H        -0.599236         0.008435        -0.425525
 H         1.378532         0.708602        -2.069459
 H         1.838321         1.746326        -0.934186
 H         4.183382         0.381312        -1.708202
 H         2.171485        -1.737862        -2.270050
 H         3.660674        -2.161963        -1.464806
 H         1.985655        -3.211275         0.474220
 H         4.130781        -0.448995         1.039757
