19
Iteration:  2364charge 0 multiplicity 1
 C        -0.052121         0.249871         0.353434
 C         1.363626         0.036300         0.073343
 C         2.039622         0.740041        -1.185551
 C         3.276474        -0.103297        -1.242229
 C         2.750630        -1.514268        -1.487231
 C         2.148868        -1.347485        -0.107406
 O         1.539224        -2.412187         0.631240
 C         3.283078        -0.448341         0.416078
 O         2.489029         0.366992         1.095143
 H        -0.308322        -0.632905         0.829317
 H        -0.253802         1.042682         0.981391
 H        -0.610956         0.183450        -0.590863
 H         1.379175         0.444350        -1.989598
 H         2.170947         1.799790        -1.239802
 H         4.156043         0.328129        -1.556317
 H         2.112437        -1.652146        -2.355947
 H         3.627867        -2.166988        -1.374403
 H         1.379990        -3.218993         0.146525
 H         4.111421        -0.916503         1.030218
