19
Iteration:  4462
 C         0.024253         0.370657         0.393960
 C         1.353730         0.034490        -0.056531
 C         2.091691         0.794419        -1.260064
 C         3.395012        -0.073776        -1.057129
 C         2.823135        -1.501016        -1.464862
 C         2.116013        -1.396936        -0.118272
 O         1.605257        -2.610451         0.620219
 C         3.181660        -0.522817         0.429816
 O         2.263613         0.370168         1.048966
 H        -0.026520         0.215545         1.463942
 H        -0.008402         1.476906         0.331861
 H        -0.838157        -0.112110        -0.018985
 H         1.613936         0.758590        -2.293361
 H         2.286927         1.922784        -1.088188
 H         4.304618         0.347481        -1.446614
 H         2.251657        -1.506549        -2.376106
 H         3.606260        -2.245009        -1.315415
 H         0.864011        -2.903425         0.053609
 H         4.151362        -0.745316         0.923854
