19
Iteration:  4604charge 0 multiplicity 1
 C        -0.041098         0.302053         0.352718
 C         1.423100         0.062445         0.053842
 C         2.107506         0.774113        -1.212319
 C         3.380775        -0.082950        -1.153201
 C         2.847232        -1.558625        -1.540658
 C         2.128967        -1.450187        -0.150382
 O         1.462858        -2.539655         0.512301
 C         3.283149        -0.413265         0.418775
 O         2.309653         0.357574         1.183165
 H        -0.584667        -0.557892         0.834634
 H        -0.055742         1.046263         1.196941
 H        -0.633365         0.654526        -0.444061
 H         1.629281         0.609941        -2.155856
 H         2.311395         1.820101        -1.171597
 H         4.363994         0.236208        -1.603334
 H         2.101125        -1.582357        -2.275050
 H         3.573543        -2.311544        -1.402334
 H         0.970998        -2.119675         1.228856
 H         4.341106        -0.659272         0.778704
