19
Iteration:  1790
 C         0.008959         0.355411         0.472502
 C         1.462707         0.042573         0.093145
 C         1.988632         0.739048        -1.077131
 C         3.193383        -0.072420        -1.288834
 C         2.685692        -1.500715        -1.587633
 C         2.098518        -1.388457        -0.185918
 O         1.572919        -2.430561         0.679737
 C         3.298382        -0.566909         0.302135
 O         2.517262         0.354522         1.125470
 H        -0.505713        -0.425990         1.145944
 H        -0.161364         1.346121         0.940834
 H        -0.629224         0.235159        -0.514621
 H         1.372219         0.724787        -2.061245
 H         2.240213         1.822620        -1.039861
 H         4.192383         0.225291        -1.601868
 H         2.059426        -1.584991        -2.483175
 H         3.223781        -2.395958        -1.501247
 H         1.556560        -3.227218         0.182835
 H         4.314183        -0.968223         0.660045
