19
Iteration:  2418
 C        -0.022172         0.194576         0.471040
 C         1.351102         0.047696        -0.028456
 C         2.087570         0.788846        -1.287959
 C         3.387531        -0.118788        -1.189041
 C         2.760107        -1.487438        -1.497365
 C         2.115088        -1.335374        -0.121325
 O         1.612689        -2.501538         0.592948
 C         3.257941        -0.544622         0.419417
 O         2.319065         0.432260         1.118724
 H        -0.140938        -0.355970         1.357350
 H        -0.158909         1.248796         0.666074
 H        -0.756317        -0.096320        -0.348887
 H         1.599567         0.522355        -2.215464
 H         2.288347         1.855174        -1.194264
 H         4.244413         0.304176        -1.627205
 H         2.177438        -1.519582        -2.427739
 H         3.373150        -2.406559        -1.568367
 H         0.935467        -2.252460         1.208397
 H         4.221141        -0.897074         0.909127
