19
Iteration:  3120charge 0 multiplicity 1
 C        -0.116583         0.306298         0.319756
 C         1.409217         0.074670         0.024486
 C         2.092157         0.785623        -1.215029
 C         3.369801        -0.097189        -1.132828
 C         2.778304        -1.533800        -1.504185
 C         2.138668        -1.450249        -0.142629
 O         1.621246        -2.536437         0.567503
 C         3.251952        -0.458842         0.500159
 O         2.294997         0.386025         1.088429
 H        -0.557025        -0.462219         1.087261
 H        -0.309562         1.395875         0.650431
 H        -0.777448         0.093688        -0.515524
 H         1.455921         0.617129        -2.154251
 H         2.241044         1.950820        -1.048676
 H         4.372587         0.282086        -1.525703
 H         2.155429        -1.564851        -2.395160
 H         3.552219        -2.332795        -1.810910
 H         1.919210        -2.427507         1.439606
 H         4.139856        -0.834339         0.922698
