19
Iteration:  1837charge 0 multiplicity 1
 C         0.086869         0.280418         0.619880
 C         1.448826         0.126189         0.011818
 C         2.014663         0.755062        -1.208965
 C         3.334950        -0.094101        -1.187834
 C         2.662337        -1.533972        -1.556179
 C         2.014633        -1.376620        -0.103285
 O         1.620205        -2.525925         0.560037
 C         3.220913        -0.544283         0.368752
 O         2.462258         0.409098         1.015967
 H        -0.074210        -0.311496         1.566983
 H        -0.122417         1.347162         0.985161
 H        -0.666827        -0.118386        -0.011875
 H         1.445640         0.843796        -2.109000
 H         2.128736         1.882563        -1.022627
 H         4.234648         0.355788        -1.737785
 H         2.081118        -1.683247        -2.530207
 H         3.459931        -2.294700        -1.623187
 H         0.673928        -2.765649         0.341429
 H         4.065324        -0.906411         0.934041
