19
Iteration:  2724
 C        -0.041995         0.173530         0.488299
 C         1.335253         0.075373        -0.020692
 C         2.046487         0.722624        -1.217760
 C         3.372740        -0.099195        -1.113007
 C         2.816026        -1.512237        -1.509111
 C         2.174178        -1.379687        -0.083851
 O         1.502384        -2.404613         0.563230
 C         3.286765        -0.466896         0.427036
 O         2.315241         0.462283         1.001525
 H        -0.107566        -0.543090         1.372846
 H        -0.345781         1.170097         0.678714
 H        -0.724226        -0.100216        -0.460981
 H         1.841720         0.393516        -2.279200
 H         2.316912         1.754968        -1.042221
 H         4.398080         0.386591        -1.380384
 H         2.152148        -1.617121        -2.386087
 H         3.374292        -2.522606        -1.507116
 H         1.939625        -3.309751         0.493605
 H         4.126708        -0.850952         1.163843
