19
Iteration:  3488charge 0 multiplicity 1
 C        -0.075300         0.141431         0.371911
 C         1.408092         0.112549        -0.075421
 C         2.118013         0.832657        -1.251830
 C         3.328839        -0.126469        -1.131763
 C         2.870203        -1.493418        -1.518412
 C         2.132952        -1.408339        -0.158535
 O         1.461410        -2.413833         0.552743
 C         3.217337        -0.533534         0.470871
 O         2.386273         0.393651         1.150025
 H        -0.018179        -0.626052         1.279504
 H        -0.515018         1.077644         0.742862
 H        -0.618872        -0.120763        -0.509883
 H         1.523468         0.663644        -2.222807
 H         2.204435         1.882546        -0.991707
 H         4.378285         0.192261        -1.426247
 H         1.998312        -1.530035        -2.246109
 H         3.412731        -2.383870        -1.442983
 H         1.867425        -2.618199         1.446438
 H         4.134913        -0.675388         0.980185
