19
Iteration:  4140charge 0 multiplicity 1
 C        -0.029300         0.240423         0.295746
 C         1.389111        -0.019577         0.011886
 C         1.979602         0.768197        -1.194344
 C         3.334121        -0.145226        -1.078667
 C         2.936350        -1.559050        -1.397735
 C         2.126599        -1.378764        -0.120536
 O         1.505465        -2.401067         0.544890
 C         3.236472        -0.453138         0.468107
 O         2.347777         0.463012         1.062169
 H        -0.696111        -0.505296         0.812102
 H         0.041899         1.070799         0.958816
 H        -0.478459         0.558315        -0.573444
 H         1.431515         0.352846        -2.127372
 H         2.112672         1.865473        -1.144312
 H         4.273284         0.373228        -1.474959
 H         2.524803        -1.753104        -2.486461
 H         3.785284        -2.207336        -1.257770
 H         1.536603        -3.338889         0.127560
 H         4.071660        -0.999779         0.985966
