19
Iteration:  4883
 C         0.035168         0.142821         0.477241
 C         1.396525         0.089745         0.009925
 C         2.090443         0.786096        -1.225544
 C         3.424473        -0.142806        -1.098945
 C         2.751207        -1.498637        -1.564985
 C         2.099749        -1.371559        -0.159326
 O         1.368963        -2.291017         0.565254
 C         3.327647        -0.573122         0.473148
 O         2.430926         0.362816         1.091545
 H        -0.385754        -0.807906         0.829022
 H        -0.135664         0.868882         1.280499
 H        -0.664607         0.462252        -0.347759
 H         1.385616         0.839867        -2.101701
 H         2.356183         1.790659        -0.780387
 H         4.128700         0.195494        -1.781131
 H         2.001816        -1.520258        -2.513443
 H         3.477915        -2.429650        -1.546716
 H         1.155958        -3.036974        -0.083510
 H         4.315578        -0.860311         0.944909
