19
Iteration:  1774
 C         0.017195         0.276875         0.450786
 C         1.423058         0.088290         0.092289
 C         2.005191         0.849138        -1.202820
 C         3.264108        -0.122066        -1.208301
 C         2.571392        -1.474816        -1.520716
 C         2.061172        -1.391712        -0.082408
 O         1.549434        -2.477240         0.627246
 C         3.316358        -0.558787         0.302564
 O         2.563351         0.363288         1.097886
 H        -0.395824        -0.544367         1.009793
 H         0.086532         1.269439         0.882233
 H        -0.661066         0.246592        -0.423982
 H         1.399058         0.683230        -2.057435
 H         2.214991         1.826265        -0.791233
 H         4.129001         0.170212        -1.856428
 H         1.779221        -1.685729        -2.293762
 H         3.529179        -2.183623        -1.751597
 H         2.033551        -3.191901         0.176590
 H         4.116092        -0.932526         0.875637
