19
Iteration:  3408
 C        -0.043578         0.401651         0.407582
 C         1.354682         0.055253        -0.000975
 C         2.038275         0.698181        -1.213477
 C         3.359026        -0.081519        -1.067729
 C         2.835214        -1.511166        -1.499689
 C         2.091319        -1.401301        -0.160511
 O         1.680021        -2.533257         0.532923
 C         3.255278        -0.484367         0.367801
 O         2.306650         0.351806         1.122348
 H        -0.276350         0.008069         1.401088
 H        -0.062606         1.498215         0.383484
 H        -0.731244        -0.143621        -0.323555
 H         1.531518         0.542818        -2.240409
 H         2.168944         1.742308        -0.790658
 H         4.226055         0.319473        -1.613269
 H         2.336299        -1.604939        -2.536344
 H         3.546177        -2.364057        -1.498438
 H         0.746610        -2.561447         0.904733
 H         3.985721        -0.824670         1.172961
