19
Iteration:  3541
 C        -0.076926         0.353809         0.312816
 C         1.424541         0.078089         0.015528
 C         2.070480         0.759200        -1.222683
 C         3.268372        -0.089998        -1.107085
 C         2.862110        -1.523349        -1.489279
 C         2.193512        -1.470060        -0.134483
 O         1.510606        -2.522710         0.591914
 C         3.314785        -0.456143         0.423776
 O         2.309780         0.408948         1.153149
 H        -0.472537        -0.463901         0.954927
 H        -0.237977         1.244806         0.810096
 H        -0.625686         0.421817        -0.578897
 H         1.440879         0.562162        -2.128741
 H         1.989470         1.800363        -1.290247
 H         4.181938         0.387863        -1.566802
 H         2.129474        -1.634838        -2.326789
 H         3.624522        -2.225157        -1.547460
 H         2.010025        -3.382112         0.483565
 H         4.084601        -0.873227         1.034713
