19
Iteration:  1605
 C         0.125472         0.373806         0.527006
 C         1.417845         0.007734        -0.021639
 C         1.973768         0.807062        -1.120326
 C         3.253619        -0.069736        -1.281666
 C         2.693229        -1.492586        -1.528724
 C         2.124109        -1.436066        -0.139830
 O         1.503699        -2.439561         0.596186
 C         3.315485        -0.563530         0.259255
 O         2.427604         0.298937         1.124884
 H        -0.169888        -0.347616         1.283570
 H         0.195782         1.387241         0.904356
 H        -0.721740         0.250666        -0.159006
 H         1.215819         0.623227        -1.917111
 H         2.093916         1.844354        -0.855204
 H         4.039189         0.266002        -1.824919
 H         2.141345        -1.644936        -2.572877
 H         3.468282        -2.273165        -1.623901
 H         1.706287        -2.577893         1.511721
 H         4.222374        -0.967407         0.723958
