19
Iteration:  3552
 C        -0.009657         0.335680         0.321236
 C         1.385799         0.078666         0.063945
 C         1.989049         0.728016        -1.234032
 C         3.380199        -0.037743        -1.144440
 C         2.815528        -1.503406        -1.460094
 C         2.106856        -1.439410        -0.083240
 O         1.559272        -2.513485         0.564188
 C         3.244488        -0.487474         0.471563
 O         2.317112         0.394211         1.106116
 H        -0.552006        -0.425393         0.911103
 H        -0.103555         1.259283         0.751805
 H        -0.457633         0.315708        -0.624338
 H         1.567738         0.299511        -2.168415
 H         2.255179         1.731319        -1.063159
 H         4.340275         0.205333        -1.691223
 H         2.224444        -1.671086        -2.412633
 H         3.585470        -2.212517        -1.436750
 H         1.894527        -3.286093         0.176532
 H         4.204614        -0.562247         0.963366
