19
Iteration:  1512
 C         0.030434         0.312375         0.523347
 C         1.445332        -0.030303         0.091048
 C         2.002442         0.778654        -1.156757
 C         3.259444        -0.073300        -1.224510
 C         2.672165        -1.486119        -1.540719
 C         2.074645        -1.406164        -0.134546
 O         1.536379        -2.398215         0.660823
 C         3.347646        -0.551937         0.328029
 O         2.483975         0.336203         1.025979
 H        -0.377515        -0.155767         1.463829
 H        -0.084422         1.437442         0.540378
 H        -0.639749        -0.083925        -0.213731
 H         1.355066         0.598445        -2.071269
 H         2.327652         1.851601        -0.966127
 H         4.181948         0.464793        -1.755593
 H         2.204056        -1.508980        -2.531119
 H         3.400446        -2.327677        -1.564794
 H         0.952329        -3.026270         0.129676
 H         4.309064        -0.942333         0.697598
