19
Iteration:  1313
 C        -0.047289         0.373853         0.505864
 C         1.413423         0.014317         0.063632
 C         2.027150         0.741706        -1.202553
 C         3.261978        -0.040776        -1.197600
 C         2.712034        -1.512833        -1.525901
 C         2.132282        -1.477126        -0.123085
 O         1.563091        -2.502492         0.626918
 C         3.293619        -0.554144         0.297175
 O         2.462820         0.406378         1.095538
 H        -0.475960         0.052208         1.467471
 H        -0.064362         1.482286         0.478810
 H        -0.700604         0.125851        -0.303428
 H         1.515361         0.854013        -2.177289
 H         2.321313         1.838688        -0.964746
 H         4.151225         0.296538        -1.591518
 H         1.845575        -1.712233        -2.198530
 H         3.675002        -2.170718        -1.515544
 H         1.409813        -3.245592         0.078365
 H         4.326985        -0.693703         0.703912
