19
Iteration:   595
 C        -0.050799         0.151933         0.381814
 C         1.421895         0.090927         0.015963
 C         2.078250         0.841321        -1.172983
 C         3.258347        -0.077143        -1.174866
 C         2.833680        -1.552086        -1.469020
 C         2.103190        -1.356129        -0.149028
 O         1.567649        -2.425106         0.618428
 C         3.184595        -0.564096         0.315675
 O         2.366120         0.395723         1.070714
 H        -0.248590        -0.461558         1.281411
 H        -0.340798         1.142722         0.633633
 H        -0.782925        -0.241232        -0.402293
 H         1.481327         0.801181        -2.074529
 H         2.267233         1.877874        -0.699604
 H         4.209318         0.320617        -1.653551
 H         2.417852        -1.730397        -2.452433
 H         3.676721        -2.239933        -1.253866
 H         2.333650        -2.674857         1.136390
 H         4.024644        -0.903971         0.824984
