19
Iteration:  3772charge 0 multiplicity 1
 C        -0.024832         0.080359         0.276958
 C         1.421374         0.115504        -0.009881
 C         2.032169         0.769590        -1.170402
 C         3.338836        -0.046758        -1.084115
 C         2.845025        -1.549692        -1.395128
 C         2.141268        -1.357020        -0.128877
 O         1.442861        -2.415315         0.555108
 C         3.261647        -0.506814         0.547744
 O         2.371226         0.453862         1.033990
 H        -0.234753        -0.571285         1.158545
 H        -0.306155         1.069579         0.582421
 H        -0.516506        -0.010928        -0.676290
 H         1.526519         0.514827        -2.162235
 H         2.290519         1.858301        -1.283262
 H         4.276929         0.216281        -1.675654
 H         2.146241        -1.615504        -2.333061
 H         3.558424        -2.373442        -1.423392
 H         1.761646        -3.244691         0.173616
 H         4.214974        -0.678747         1.126792
