19
Iteration:  2638charge 0 multiplicity 1
 C        -0.050300         0.295919         0.326017
 C         1.418203         0.046738        -0.043001
 C         2.030163         0.800415        -1.206050
 C         3.316380        -0.116729        -1.146183
 C         2.814086        -1.491077        -1.537246
 C         2.140887        -1.440477        -0.113908
 O         1.572592        -2.428790         0.671555
 C         3.204664        -0.517812         0.448863
 O         2.325649         0.359527         1.073696
 H        -0.123915        -0.151601         1.335119
 H        -0.468679         1.248092         0.448509
 H        -0.703902        -0.242386        -0.438235
 H         1.549512         0.521315        -2.174538
 H         2.009827         1.877854        -1.147256
 H         4.418488         0.072085        -1.313591
 H         2.124767        -1.460556        -2.340542
 H         3.730504        -2.157843        -1.633533
 H         2.341848        -2.969764         0.992542
 H         4.188573        -0.717168         0.948189
