19
Iteration:  3743
 C        -0.124381         0.231730         0.346727
 C         1.356968        -0.019399         0.015087
 C         2.019033         0.737775        -1.223105
 C         3.367978        -0.064618        -1.163465
 C         2.988512        -1.549745        -1.470285
 C         2.173034        -1.390954        -0.136717
 O         1.439274        -2.397268         0.568211
 C         3.289168        -0.453248         0.459664
 O         2.303638         0.406634         1.118783
 H        -0.590785        -0.376347         1.086456
 H        -0.143714         1.295357         0.771205
 H        -0.695016         0.388961        -0.617463
 H         1.561455         0.513493        -2.195719
 H         2.404901         1.768690        -0.939961
 H         4.241076         0.155720        -1.675173
 H         2.497285        -1.583519        -2.393121
 H         3.698109        -2.425807        -1.354116
 H         1.999997        -3.250128         0.717090
 H         4.221061        -0.696439         1.017577
