19
Iteration:  3220
 C        -0.020816         0.241369         0.347157
 C         1.413888         0.114611         0.007790
 C         1.999556         0.794450        -1.229982
 C         3.329746        -0.028013        -1.126881
 C         2.873063        -1.522070        -1.409176
 C         2.111204        -1.438171        -0.117400
 O         1.493684        -2.546725         0.567120
 C         3.260541        -0.449160         0.410306
 O         2.359164         0.430589         1.089709
 H        -0.262588        -0.235919         1.287818
 H        -0.394477         1.358743         0.426177
 H        -0.731240        -0.303178        -0.337398
 H         1.446852         0.488515        -2.111269
 H         2.450758         1.785350        -0.903689
 H         4.318409         0.146903        -1.480511
 H         2.315305        -1.807000        -2.264101
 H         3.685034        -2.290845        -1.438333
 H         1.703600        -3.405635         0.060099
 H         4.146542        -0.593923         1.014418
