19
Iteration:   901
 C        -0.100091         0.165245         0.394916
 C         1.392120         0.051714         0.033962
 C         2.120982         0.774164        -1.177507
 C         3.345853        -0.101993        -1.180449
 C         2.755452        -1.492930        -1.471391
 C         2.046110        -1.339235        -0.199378
 O         1.585033        -2.423492         0.615765
 C         3.228934        -0.500820         0.430636
 O         2.368354         0.425586         1.051019
 H        -0.106889        -0.488913         1.271552
 H        -0.429067         1.168584         0.698229
 H        -0.703019        -0.150687        -0.330243
 H         1.831982         0.446796        -2.205252
 H         2.102666         1.908264        -1.013264
 H         4.263633         0.195173        -1.584801
 H         2.316327        -1.659193        -2.490082
 H         3.444826        -2.337360        -1.502159
 H         2.372282        -3.033460         0.806877
 H         4.108514        -0.913620         1.052352
