19
Iteration:  3382charge 0 multiplicity 1
 C        -0.040225         0.365246         0.413374
 C         1.389817         0.056496        -0.051063
 C         2.050470         0.765075        -1.226447
 C         3.348206        -0.036702        -1.159609
 C         2.807836        -1.477138        -1.465723
 C         2.168567        -1.458174        -0.126275
 O         1.645981        -2.597569         0.558484
 C         3.206295        -0.538084         0.464511
 O         2.318077         0.406659         1.078293
 H        -0.341156        -0.250693         1.228941
 H         0.007886         1.444022         0.678205
 H        -0.744419         0.056664        -0.319057
 H         1.392753         0.654587        -2.092901
 H         2.145328         1.844877        -0.905805
 H         4.258860         0.253410        -1.672328
 H         2.374568        -1.635510        -2.420409
 H         3.619169        -2.300940        -1.541235
 H         0.699639        -2.452006         0.838491
 H         3.931837        -0.851953         1.171387
