19
Iteration:  2708
 C        -0.020647         0.052453         0.411134
 C         1.443596         0.013390        -0.013217
 C         2.127265         0.755412        -1.263202
 C         3.375268        -0.141534        -1.151009
 C         2.776649        -1.542084        -1.443158
 C         2.036458        -1.331749        -0.118699
 O         1.464135        -2.433378         0.556024
 C         3.216433        -0.423382         0.461303
 O         2.386283         0.554723         1.077089
 H         0.029397        -0.480764         1.332666
 H        -0.350470         1.096835         0.782770
 H        -0.662611        -0.299985        -0.295636
 H         1.397508         0.646992        -2.060896
 H         2.225679         1.812792        -0.924401
 H         4.298844         0.066933        -1.635538
 H         2.188451        -1.550032        -2.391161
 H         3.639770        -2.142328        -1.403170
 H         1.975326        -3.246422         0.252939
 H         4.119794        -0.592240         0.956138
