19
Iteration:  4138
 C        -0.026036         0.226440         0.282980
 C         1.395768        -0.012776         0.005038
 C         1.957409         0.750866        -1.178875
 C         3.333419        -0.130618        -1.090257
 C         2.929755        -1.560147        -1.387855
 C         2.132293        -1.392047        -0.134560
 O         1.505175        -2.389234         0.540944
 C         3.250412        -0.468341         0.480083
 O         2.363363         0.473480         1.064602
 H        -0.746713        -0.504791         0.780078
 H         0.089520         1.075946         0.987733
 H        -0.612265         0.506028        -0.607387
 H         1.449553         0.453318        -2.146416
 H         2.122880         1.853588        -1.149860
 H         4.289214         0.349277        -1.475750
 H         2.459051        -1.683566        -2.407016
 H         3.795982        -2.236726        -1.170585
 H         1.529527        -3.252041         0.120999
 H         3.982838        -1.028225         1.006500
