19
Iteration:  3486charge 0 multiplicity 1
 C        -0.102395         0.145641         0.387709
 C         1.425517         0.093844        -0.068414
 C         2.113590         0.851156        -1.273535
 C         3.323552        -0.146553        -1.129925
 C         2.859783        -1.494148        -1.514100
 C         2.154545        -1.404133        -0.169893
 O         1.452527        -2.415852         0.544474
 C         3.218188        -0.524235         0.493325
 O         2.395064         0.397855         1.149529
 H        -0.037783        -0.582579         1.210780
 H        -0.537295         1.033413         0.712879
 H        -0.576128        -0.171494        -0.524178
 H         1.555274         0.571404        -2.262227
 H         2.254193         1.861497        -0.914191
 H         4.346478         0.265161        -1.473052
 H         1.990596        -1.470074        -2.228526
 H         3.424426        -2.339697        -1.460389
 H         1.853130        -2.576736         1.487169
 H         4.183739        -0.724407         0.981513
