19
Iteration:  1444charge 0 multiplicity 1
 C         0.053588         0.334303         0.454205
 C         1.426972         0.039018         0.061961
 C         1.980727         0.748230        -1.122023
 C         3.231616        -0.084230        -1.196600
 C         2.663891        -1.562626        -1.542313
 C         2.132939        -1.430973        -0.101144
 O         1.585679        -2.551601         0.481758
 C         3.284031        -0.531538         0.366658
 O         2.485019         0.444518         1.063814
 H        -0.220542        -0.230061         1.409974
 H         0.206937         1.446607         0.641595
 H        -0.763251         0.191285        -0.267682
 H         1.462879         0.668827        -2.084668
 H         2.255438         1.793384        -0.703072
 H         3.950036         0.441346        -1.761715
 H         1.985148        -1.540270        -2.314706
 H         3.208403        -2.552424        -1.579827
 H         1.209868        -2.163335         1.294889
 H         4.230035        -0.662930         0.920540
