19
Iteration:  4106
 C        -0.066539         0.067895         0.286332
 C         1.443179         0.099369         0.026131
 C         2.154671         0.822686        -1.219373
 C         3.353450        -0.136010        -1.116668
 C         2.812102        -1.503128        -1.431234
 C         2.126845        -1.423195        -0.113585
 O         1.424008        -2.446056         0.630739
 C         3.308274        -0.387059         0.412843
 O         2.303374         0.451193         1.113687
 H        -0.386132        -0.723959         1.055250
 H        -0.328707         1.074285         0.644210
 H        -0.586473         0.106076        -0.644408
 H         1.663104         0.617572        -2.212666
 H         2.460841         1.905983        -1.306633
 H         4.417370         0.058515        -1.509885
 H         2.233887        -1.480565        -2.426545
 H         3.552568        -2.346732        -1.457672
 H         1.545664        -3.304445         0.063603
 H         4.133882        -0.633704         1.102806
