19
Iteration:  1859charge 0 multiplicity 1
 C        -0.038759         0.253058         0.600813
 C         1.387450         0.070009         0.138784
 C         2.085024         0.746077        -1.223138
 C         3.304428        -0.184309        -1.198157
 C         2.684289        -1.506489        -1.597499
 C         2.075517        -1.358782        -0.096668
 O         1.578914        -2.545831         0.475451
 C         3.281495        -0.520941         0.318283
 O         2.522249         0.500368         1.074738
 H        -0.088360        -0.237869         1.634589
 H        -0.296981         1.346477         0.865296
 H        -0.722482        -0.237977        -0.064400
 H         1.418140         0.733218        -2.071409
 H         2.262556         1.872055        -1.183984
 H         4.208691         0.339758        -1.582204
 H         1.921222        -1.825213        -2.310326
 H         3.398732        -2.345212        -1.532847
 H         0.669765        -2.311550         0.687312
 H         4.202422        -0.757757         0.781771
