19
Iteration:  3194charge 0 multiplicity 1
 C        -0.060012         0.095606         0.426092
 C         1.384033         0.041446        -0.029128
 C         2.062289         0.741073        -1.240387
 C         3.412390        -0.076897        -1.113412
 C         2.834034        -1.519812        -1.489458
 C         2.126289        -1.332152        -0.121898
 O         1.491577        -2.369802         0.561313
 C         3.259538        -0.521765         0.482362
 O         2.324885         0.483609         1.053315
 H        -0.199719        -0.507594         1.383590
 H        -0.200121         1.096765         0.673696
 H        -0.839138        -0.227547        -0.216345
 H         1.665083         0.614136        -2.284679
 H         2.359980         1.747026        -0.949961
 H         4.398340         0.372714        -1.494351
 H         2.241915        -1.745956        -2.372507
 H         3.485582        -2.431510        -1.409745
 H         1.651764        -3.234223         0.045981
 H         4.079860        -0.788500         1.161827
