19
Iteration:  4185
 C        -0.015360         0.324405         0.342943
 C         1.391176        -0.005459        -0.023641
 C         2.098815         0.734976        -1.201424
 C         3.349599        -0.099519        -1.052320
 C         2.820795        -1.547953        -1.474739
 C         2.100569        -1.406775        -0.126068
 O         1.566414        -2.483165         0.517454
 C         3.178816        -0.495140         0.497571
 O         2.264090         0.462899         1.039200
 H        -0.553907        -0.341431         1.072162
 H        -0.077913         1.255295         0.869409
 H        -0.584928         0.310174        -0.554463
 H         1.755213         0.581564        -2.320760
 H         2.169973         1.815999        -0.903675
 H         4.425205         0.139072        -1.315021
 H         2.197159        -1.773682        -2.466370
 H         3.637852        -2.276362        -1.400682
 H         2.403924        -3.024156         0.792559
 H         4.169966        -0.580968         1.110839
