19
Iteration:  1064
 C         0.014957         0.188845         0.416018
 C         1.396489         0.002866        -0.033234
 C         1.999445         0.786428        -1.184004
 C         3.346890        -0.091510        -1.182199
 C         2.739493        -1.486486        -1.514927
 C         2.108581        -1.355784        -0.150261
 O         1.518391        -2.477832         0.581307
 C         3.265196        -0.522900         0.458569
 O         2.426887         0.441417         1.059759
 H        -0.204248        -0.504741         1.351601
 H        -0.178627         1.259516         0.877966
 H        -0.673194        -0.080122        -0.396938
 H         1.407620         0.551691        -2.054046
 H         2.116189         1.875371        -0.968959
 H         4.169106         0.316030        -1.716333
 H         2.266667        -1.628759        -2.517650
 H         3.429609        -2.246721        -1.667251
 H         1.793437        -2.535235         1.482649
 H         4.229966        -0.846833         0.968583
