19
Iteration:  3025charge 0 multiplicity 1
 C        -0.011995         0.127775         0.428981
 C         1.407983         0.078969         0.011030
 C         2.094300         0.735338        -1.244014
 C         3.350476        -0.085216        -1.098333
 C         2.799180        -1.528916        -1.476741
 C         2.154741        -1.384534        -0.114583
 O         1.494551        -2.385725         0.590770
 C         3.257436        -0.513018         0.447252
 O         2.332336         0.469061         1.045115
 H        -0.053078        -0.560885         1.233030
 H        -0.282030         1.200378         0.656069
 H        -0.796077        -0.350032        -0.139367
 H         1.658345         0.663060        -2.260420
 H         2.175527         1.838953        -1.072233
 H         4.293764         0.211769        -1.589021
 H         2.181991        -1.500059        -2.443073
 H         3.461320        -2.352339        -1.681088
 H         1.335280        -3.093563        -0.113423
 H         4.103119        -0.712870         1.139888
