19
Iteration:  3193charge 0 multiplicity 1
 C        -0.062960         0.098965         0.430430
 C         1.383852         0.041036        -0.036531
 C         2.064846         0.738398        -1.236304
 C         3.407107        -0.079658        -1.105853
 C         2.838851        -1.522396        -1.480845
 C         2.137962        -1.338964        -0.126533
 O         1.491471        -2.360462         0.558809
 C         3.256332        -0.522565         0.479035
 O         2.328728         0.483232         1.052497
 H        -0.202418        -0.529668         1.358130
 H        -0.205177         1.087830         0.676189
 H        -0.849470        -0.244141        -0.226884
 H         1.613610         0.641353        -2.276279
 H         2.330462         1.757846        -0.973518
 H         4.396169         0.343346        -1.483719
 H         2.194284        -1.736508        -2.393063
 H         3.483165        -2.418841        -1.445621
 H         1.657037        -3.205996         0.053513
 H         4.078039        -0.791070         1.191542
