19
Iteration:  1915
 C        -0.061634         0.268243         0.476703
 C         1.408662         0.035805         0.031077
 C         1.977562         0.850173        -1.144401
 C         3.346971        -0.142586        -1.233192
 C         2.734986        -1.477414        -1.570839
 C         2.056161        -1.382555        -0.152377
 O         1.520954        -2.413400         0.633998
 C         3.314458        -0.556031         0.321889
 O         2.505826         0.323401         1.103875
 H        -0.294687        -0.343323         1.374420
 H        -0.351399         1.368739         0.606188
 H        -0.772248        -0.147862        -0.229705
 H         1.437772         0.684605        -2.039870
 H         2.309497         1.900765        -0.874203
 H         4.073720         0.223064        -1.922169
 H         1.950730        -1.475878        -2.344471
 H         3.381825        -2.413147        -1.665985
 H         2.300686        -2.667847         1.098647
 H         4.145665        -1.002258         0.786544
