19
Iteration:  1766
 C         0.025809         0.284000         0.489197
 C         1.456267         0.080355         0.048344
 C         2.030603         0.822855        -1.144076
 C         3.257694        -0.090716        -1.242140
 C         2.547379        -1.490560        -1.532842
 C         2.086470        -1.352815        -0.101313
 O         1.516648        -2.519308         0.615376
 C         3.347691        -0.526497         0.361357
 O         2.533490         0.360427         1.038881
 H        -0.315749        -0.588111         1.096019
 H        -0.189335         1.212312         1.029316
 H        -0.628459         0.175804        -0.482953
 H         1.550331         0.823866        -2.179961
 H         2.231587         1.850802        -0.926173
 H         4.182753         0.116168        -1.667858
 H         1.718913        -1.654868        -2.175228
 H         3.157838        -2.334545        -1.635033
 H         2.201425        -3.145287         0.287282
 H         4.202394        -0.796766         0.987800
