19
Iteration:  3866
 C        -0.045897         0.295855         0.300218
 C         1.411711         0.017660         0.024978
 C         2.036711         0.799066        -1.248356
 C         3.416414        -0.048551        -1.041050
 C         2.823225        -1.490966        -1.382847
 C         2.146179        -1.419673        -0.113546
 O         1.505373        -2.539716         0.516434
 C         3.218911        -0.482098         0.440838
 O         2.301761         0.383070         1.048103
 H        -0.354832        -0.178001         1.325040
 H        -0.347224         1.344178         0.349400
 H        -0.609295        -0.079720        -0.556118
 H         1.561666         0.473079        -2.197985
 H         2.255524         1.931722        -1.240057
 H         4.321872         0.427800        -1.526394
 H         2.133583        -1.691995        -2.211553
 H         3.615658        -2.233300        -1.427957
 H         2.139506        -2.904728         1.248331
 H         4.209887        -0.805829         0.782698
