19
Iteration:  4047charge 0 multiplicity 1
 C        -0.002216         0.265979         0.253519
 C         1.395996         0.059105        -0.003314
 C         2.044328         0.755104        -1.139586
 C         3.308364        -0.048725        -1.143868
 C         2.903916        -1.549579        -1.509118
 C         2.151758        -1.378966        -0.152138
 O         1.424017        -2.480746         0.569654
 C         3.245174        -0.451197         0.385497
 O         2.342048         0.381241         1.187346
 H        -0.314110         0.104348         1.297129
 H        -0.348240         1.322146        -0.146523
 H        -0.403182        -0.706784        -0.333714
 H         1.477667         0.417426        -2.002949
 H         2.247235         1.817774        -0.959196
 H         4.245675         0.389162        -1.278441
 H         2.398964        -1.684054        -2.460909
 H         3.707802        -2.385565        -1.373760
 H         2.036992        -2.878675         1.168864
 H         4.052027        -0.786351         1.026549
