19
Iteration:  3352charge 0 multiplicity 1
 C        -0.065296         0.191154         0.358158
 C         1.468533         0.021395         0.057113
 C         2.058438         0.721733        -1.155285
 C         3.345139        -0.109558        -1.133605
 C         2.763951        -1.528506        -1.451376
 C         2.140063        -1.396564        -0.109621
 O         1.573491        -2.491955         0.470119
 C         3.260749        -0.458564         0.367552
 O         2.389257         0.472487         1.115416
 H        -0.624925        -0.539903         0.897247
 H        -0.214915         1.205000         0.863148
 H        -0.691894         0.218672        -0.614251
 H         1.372347         0.723886        -2.044437
 H         2.093951         1.874314        -0.981107
 H         4.216033         0.238681        -1.593918
 H         2.277350        -1.681444        -2.425743
 H         3.595259        -2.349465        -1.315002
 H         0.732793        -2.184650         0.923407
 H         4.125363        -0.656221         1.066380
