19
Iteration:    31
 C        -0.091942         0.174086         0.411011
 C         1.421514         0.127521         0.051690
 C         2.043182         0.715217        -1.284628
 C         3.372591        -0.117860        -1.146272
 C         2.783500        -1.490662        -1.432267
 C         2.129747        -1.362879        -0.019983
 O         1.685071        -2.555049         0.412882
 C         3.178653        -0.457330         0.524793
 O         2.364873         0.533974         1.051217
 H        -0.251078        -0.478457         1.253362
 H        -0.578756         1.104410         0.567445
 H        -0.482173        -0.526683        -0.384070
 H         1.511221         0.534825        -2.137098
 H         2.121914         1.776940        -1.160351
 H         4.300071         0.105660        -1.485120
 H         2.164999        -1.663871        -2.286949
 H         3.547305        -2.336812        -1.458601
 H         0.749703        -2.491431         0.631331
 H         4.014752        -0.901920         1.120863
