19
Iteration:  2423
 C        -0.035777         0.199678         0.466899
 C         1.383660         0.054568        -0.024070
 C         2.091657         0.774950        -1.261793
 C         3.353379        -0.120902        -1.184130
 C         2.808572        -1.486345        -1.500804
 C         2.067254        -1.337218        -0.081593
 O         1.625133        -2.499303         0.571508
 C         3.252336        -0.499929         0.388127
 O         2.314316         0.390795         1.091941
 H        -0.085453        -0.330299         1.479416
 H        -0.254003         1.298162         0.563520
 H        -0.788622        -0.045632        -0.238688
 H         1.562241         0.439312        -2.186173
 H         2.414510         1.836401        -1.271519
 H         4.382260         0.321623        -1.442574
 H         2.173304        -1.465576        -2.405672
 H         3.276390        -2.479783        -1.617388
 H         1.083386        -2.084986         1.331005
 H         4.088895        -0.939489         0.879695
