19
Iteration:  4684
 C         0.049658         0.355503         0.341827
 C         1.413521         0.012096        -0.027050
 C         2.103191         0.847220        -1.185530
 C         3.335643        -0.059176        -1.128856
 C         2.731001        -1.630802        -1.543547
 C         2.136420        -1.375095        -0.105429
 O         1.530817        -2.425097         0.581929
 C         3.234947        -0.523467         0.458194
 O         2.311199         0.316202         1.152479
 H        -0.286897        -0.327572         1.111064
 H        -0.107998         1.325022         0.754735
 H        -0.737860         0.354134        -0.426909
 H         1.613372         0.840729        -2.189492
 H         2.271401         1.961153        -0.931774
 H         4.340015         0.217763        -1.534245
 H         2.181215        -1.742586        -2.386152
 H         3.577715        -2.344857        -1.682294
 H         1.505334        -3.284769         0.200866
 H         4.050578        -0.937370         0.966380
