19
Iteration:  1940
 C         0.039638         0.263417         0.511079
 C         1.420824         0.039317         0.060672
 C         2.110502         0.858783        -1.198422
 C         3.267616        -0.139874        -1.168332
 C         2.634355        -1.544687        -1.557913
 C         2.046325        -1.418238        -0.151086
 O         1.605071        -2.451060         0.641049
 C         3.236925        -0.496229         0.329058
 O         2.423020         0.431954         1.092253
 H        -0.265791        -0.491970         1.201768
 H        -0.314330         1.235346         0.736296
 H        -0.578984         0.040614        -0.442427
 H         1.597753         0.673147        -2.167594
 H         2.462004         1.787556        -0.813029
 H         4.103821         0.233128        -1.799336
 H         1.834563        -1.448822        -2.404049
 H         3.321121        -2.466386        -1.730506
 H         2.109208        -3.180884         0.297806
 H         4.141410        -0.985234         0.836718
