19
Iteration:  3019charge 0 multiplicity 1
 C        -0.032536         0.107714         0.453831
 C         1.409492         0.066993        -0.030863
 C         2.142588         0.775569        -1.238646
 C         3.383483        -0.137044        -1.133477
 C         2.813378        -1.500981        -1.508340
 C         2.088687        -1.423905        -0.108564
 O         1.487686        -2.401715         0.611469
 C         3.218086        -0.422956         0.445619
 O         2.363336         0.464620         1.074313
 H        -0.174822        -0.594868         1.368937
 H        -0.329985         1.076758         0.751697
 H        -0.818679        -0.312369        -0.292777
 H         1.714601         0.732173        -2.256674
 H         2.210368         1.846266        -1.146726
 H         4.253172         0.121269        -1.714797
 H         2.116650        -1.448461        -2.311253
 H         3.562659        -2.328752        -1.665647
 H         1.451461        -3.151155        -0.060009
 H         4.054529        -0.689085         1.147772
