19
Iteration:  4459charge 0 multiplicity 1
 C         0.036788         0.373364         0.398043
 C         1.362772         0.018750        -0.027714
 C         2.088025         0.812381        -1.260338
 C         3.409772        -0.076676        -1.079096
 C         2.832664        -1.480604        -1.472765
 C         2.114035        -1.413592        -0.129297
 O         1.594128        -2.620139         0.637875
 C         3.166880        -0.521268         0.409488
 O         2.262718         0.392403         1.064224
 H        -0.054651         0.074332         1.441920
 H        -0.055646         1.474787         0.257068
 H        -0.856385        -0.123150        -0.129739
 H         1.636922         0.719739        -2.253200
 H         2.283866         1.837564        -1.078874
 H         4.338060         0.308715        -1.452782
 H         2.229812        -1.588055        -2.444406
 H         3.583430        -2.213005        -1.359967
 H         0.800769        -2.843847         0.046135
 H         4.187181        -0.724715         1.026743
