19
Iteration:  1806charge 0 multiplicity 1
 C         0.006020         0.345552         0.536937
 C         1.407749         0.048406         0.123876
 C         1.978658         0.773391        -1.159979
 C         3.346193        -0.116923        -1.247727
 C         2.697619        -1.552758        -1.633180
 C         2.103366        -1.406098        -0.112365
 O         1.565017        -2.391407         0.663431
 C         3.322605        -0.518216         0.293925
 O         2.445196         0.271640         1.068871
 H        -0.267248        -0.204191         1.400194
 H        -0.074584         1.388491         0.860631
 H        -0.579286         0.339895        -0.301354
 H         1.260110         0.746106        -1.921585
 H         2.073158         1.815958        -0.830501
 H         4.016302         0.418833        -1.930026
 H         1.972467        -1.638697        -2.485566
 H         3.671186        -2.135019        -1.786634
 H         1.186194        -3.103073         0.148155
 H         4.172860        -0.763456         0.859069
