19
Iteration:   287
 C        -0.101252         0.259615         0.388764
 C         1.412518        -0.021103         0.005870
 C         1.965986         0.829251        -1.140745
 C         3.352755        -0.040717        -1.188037
 C         2.874976        -1.593910        -1.529462
 C         2.244581        -1.400090        -0.141415
 O         1.642567        -2.398981         0.639425
 C         3.270337        -0.461893         0.346786
 O         2.267506         0.274009         1.089329
 H        -0.478377        -0.210800         1.345994
 H        -0.257952         1.381300         0.538570
 H        -0.827615        -0.110700        -0.318214
 H         1.388646         0.930995        -1.993505
 H         2.356668         1.753975        -0.776601
 H         4.240939         0.494257        -1.831152
 H         2.167915        -1.870324        -2.432656
 H         3.627474        -2.357182        -1.364547
 H         0.714763        -2.408957         0.674586
 H         4.209188        -0.628850         0.937937
