19
Iteration:   695charge 0 multiplicity 1
 C        -0.014334         0.191154         0.398115
 C         1.342272         0.008603        -0.033171
 C         2.046635         0.761956        -1.209769
 C         3.353573        -0.089966        -1.119278
 C         2.791071        -1.504978        -1.482430
 C         2.097738        -1.352221        -0.120492
 O         1.593789        -2.399464         0.619632
 C         3.235488        -0.484174         0.413981
 O         2.374817         0.395455         1.070457
 H         0.002948        -0.548779         1.227023
 H        -0.378157         1.115173         0.660394
 H        -0.724949        -0.051471        -0.443170
 H         1.506592         0.763719        -2.095634
 H         2.067668         1.833007        -1.137838
 H         4.152589         0.422658        -1.553138
 H         2.148927        -1.508728        -2.305783
 H         3.418040        -2.422070        -1.521556
 H         1.918736        -3.227191         0.261526
 H         4.095601        -0.836781         1.048831
