19
Iteration:   620charge 0 multiplicity 1
 C        -0.085559         0.169374         0.503226
 C         1.381921         0.106824        -0.016810
 C         2.080457         0.706952        -1.257508
 C         3.414042        -0.116424        -1.126947
 C         2.788058        -1.483013        -1.504098
 C         2.117441        -1.393713        -0.146514
 O         1.524526        -2.489157         0.545957
 C         3.230252        -0.450730         0.414133
 O         2.366076         0.466200         1.071644
 H        -0.216368        -0.496106         1.443191
 H        -0.439193         1.217375         0.705754
 H        -0.849083        -0.226531        -0.298837
 H         1.478669         0.644937        -2.265624
 H         2.189263         1.783100        -0.953343
 H         4.242679         0.299669        -1.585130
 H         2.145911        -1.498141        -2.384520
 H         3.561440        -2.350690        -1.612787
 H         2.324520        -2.976481         0.907328
 H         4.124500        -0.662818         1.114466
