19
Iteration:  1002charge 0 multiplicity 1
 C         0.024796         0.245043         0.425330
 C         1.413679        -0.016510        -0.006453
 C         2.028624         0.813401        -1.214843
 C         3.340475        -0.083460        -1.109736
 C         2.731569        -1.518960        -1.464382
 C         2.100994        -1.417528        -0.073813
 O         1.651387        -2.465174         0.644358
 C         3.237055        -0.466769         0.348527
 O         2.321174         0.408349         1.032932
 H        -0.206161        -0.383865         1.269072
 H        -0.105295         1.287070         0.522087
 H        -0.649508         0.003975        -0.347579
 H         1.386094         0.702529        -2.170927
 H         2.125243         1.912672        -0.956378
 H         4.290453         0.284952        -1.555043
 H         2.140233        -1.465461        -2.433632
 H         3.488619        -2.434797        -1.483145
 H         1.122727        -2.963468         0.047255
 H         4.257865        -0.861729         0.764854
