19
Iteration:  1926charge 0 multiplicity 1
 C        -0.098291         0.226949         0.469260
 C         1.419788         0.106811         0.055410
 C         2.065560         0.791799        -1.140118
 C         3.347711        -0.136941        -1.232200
 C         2.598342        -1.468255        -1.565824
 C         2.061484        -1.331389        -0.123003
 O         1.606370        -2.411417         0.633511
 C         3.269123        -0.603131         0.318756
 O         2.464899         0.344921         1.047149
 H        -0.187761        -0.308175         1.424369
 H        -0.268958         1.333267         0.785005
 H        -0.795562        -0.016444        -0.308365
 H         1.522381         0.808961        -2.071720
 H         2.325467         1.865578        -0.869625
 H         4.327782         0.143844        -1.558188
 H         2.040694        -1.678032        -2.486719
 H         3.432280        -2.237662        -1.472619
 H         2.292500        -3.117739         0.803191
 H         4.138419        -0.923133         0.815669
