19
Iteration:  3973
 C        -0.100512         0.226789         0.295951
 C         1.396133         0.065498        -0.022793
 C         2.056484         0.787086        -1.205010
 C         3.396637        -0.066173        -1.128197
 C         2.809140        -1.571958        -1.396236
 C         2.114278        -1.376707        -0.092614
 O         1.595162        -2.529613         0.522140
 C         3.207995        -0.443637         0.458435
 O         2.387358         0.398852         1.084134
 H        -0.444472        -0.418355         1.056760
 H        -0.013421         1.219563         0.759357
 H        -0.809113        -0.008290        -0.514405
 H         1.703625         0.550083        -2.249951
 H         2.299573         1.911151        -0.898232
 H         4.289706         0.340074        -1.585417
 H         2.172521        -1.594953        -2.325175
 H         3.689148        -2.337225        -1.451405
 H         0.688199        -2.337925         0.987001
 H         4.081140        -0.851283         0.946821
