19
Iteration:   450
 C        -0.080544         0.228133         0.320580
 C         1.432870         0.090378         0.079495
 C         2.018535         0.796546        -1.081017
 C         3.241815        -0.066229        -1.282702
 C         2.809892        -1.580161        -1.486110
 C         2.153654        -1.417309        -0.060030
 O         1.623202        -2.581038         0.499032
 C         3.250817        -0.457096         0.397846
 O         2.434456         0.479833         1.126521
 H        -0.556591        -0.331591         1.155607
 H        -0.302767         1.320678         0.579356
 H        -0.653265        -0.231537        -0.492247
 H         1.361513         0.674827        -1.983875
 H         2.229080         1.906965        -0.767035
 H         4.192668         0.349228        -1.878249
 H         2.203004        -1.913470        -2.399342
 H         3.684519        -2.245780        -1.311941
 H         0.763679        -2.291223         0.940511
 H         4.175285        -0.916995         0.832435
