19
Iteration:  1888
 C         0.103418         0.264344         0.447354
 C         1.489954         0.007741         0.095336
 C         1.947759         0.804849        -1.136630
 C         3.253650        -0.108708        -1.219981
 C         2.707644        -1.458126        -1.561317
 C         2.106400        -1.404328        -0.073184
 O         1.472618        -2.473950         0.517495
 C         3.338085        -0.526654         0.310187
 O         2.453853         0.354060         1.083132
 H        -0.186934        -0.237426         1.414031
 H        -0.020322         1.349783         0.589116
 H        -0.685134        -0.373758        -0.080459
 H         1.216267         0.598427        -2.033978
 H         2.141443         1.926022        -1.042081
 H         4.125161         0.318427        -1.813647
 H         1.932783        -1.798483        -2.253437
 H         3.492198        -2.182793        -1.543900
 H         1.364873        -2.051997         1.365143
 H         4.370801        -0.750070         0.783442
