19
Iteration:  2774
 C        -0.114170         0.334373         0.307118
 C         1.402389         0.058559         0.080639
 C         1.962693         0.752213        -1.169601
 C         3.314484        -0.052924        -1.196668
 C         2.859508        -1.533361        -1.419722
 C         2.140903        -1.465411        -0.157240
 O         1.582472        -2.487620         0.549952
 C         3.275593        -0.503902         0.417839
 O         2.370016         0.371603         1.077066
 H        -0.559519        -0.202109         1.095641
 H        -0.251502         1.439504         0.571750
 H        -0.587938         0.360812        -0.610565
 H         1.336271         0.520864        -2.006874
 H         2.114294         1.796102        -0.838224
 H         4.212689         0.225030        -1.655405
 H         2.255063        -1.777282        -2.353326
 H         3.695526        -2.176256        -1.390470
 H         2.197297        -2.832477         1.174971
 H         4.183224        -0.741783         0.970674
