19
Iteration:   438charge 0 multiplicity 1
 C        -0.056026         0.194596         0.381595
 C         1.384923         0.046984         0.013323
 C         2.048436         0.862083        -1.193829
 C         3.283169        -0.048540        -1.196025
 C         2.737928        -1.599630        -1.379833
 C         2.123178        -1.374916        -0.091298
 O         1.643928        -2.565634         0.506863
 C         3.272991        -0.487004         0.363475
 O         2.400749         0.422723         1.092167
 H        -0.245456        -0.420879         1.295487
 H        -0.434868         1.272720         0.456797
 H        -0.553841        -0.061639        -0.526836
 H         1.438129         1.165076        -2.116786
 H         2.348651         1.912394        -0.698947
 H         4.217674         0.323930        -1.738592
 H         2.043191        -1.878345        -2.225975
 H         3.699664        -2.097884        -1.505140
 H         0.938637        -2.482819         1.098676
 H         4.237968        -0.741263         0.946180
