19
Iteration:  1666charge 0 multiplicity 1
 C         0.083916         0.353732         0.568543
 C         1.452724        -0.003260         0.033642
 C         2.102447         0.809818        -1.175844
 C         3.222216        -0.081858        -1.180027
 C         2.495080        -1.495087        -1.553706
 C         2.097118        -1.425549        -0.013464
 O         1.629032        -2.609743         0.476631
 C         3.292897        -0.511458         0.323269
 O         2.499832         0.406580         1.059363
 H        -0.246699        -0.032157         1.544544
 H        -0.237603         1.430021         0.528332
 H        -0.428862        -0.094829        -0.370002
 H         1.382737         0.851809        -2.075960
 H         2.122153         1.905825        -0.950342
 H         4.165540         0.216259        -1.784589
 H         1.790767        -1.465793        -2.326796
 H         3.228044        -2.282436        -1.656241
 H         0.914722        -2.392304         1.058064
 H         4.236972        -0.817406         0.767191
