19
Iteration:  2464
 C        -0.034307         0.303540         0.305372
 C         1.419449         0.031854         0.093742
 C         2.016856         0.775401        -1.223959
 C         3.259515        -0.059112        -1.246525
 C         2.836087        -1.512337        -1.439451
 C         2.151249        -1.407745        -0.083308
 O         1.497931        -2.541708         0.572929
 C         3.211841        -0.461352         0.393736
 O         2.442171         0.389964         1.098516
 H        -0.150446         0.208786         1.379639
 H        -0.223417         1.310120         0.048238
 H        -0.766762        -0.322118        -0.257479
 H         1.209422         0.796077        -1.969846
 H         2.178944         1.707885        -0.735214
 H         4.152090         0.355464        -1.688862
 H         2.258603        -1.758348        -2.314465
 H         3.787355        -2.160905        -1.519488
 H         2.019206        -3.149027         1.061180
 H         4.097156        -0.770094         0.997089
