19
Iteration:  4319charge 0 multiplicity 1
 C        -0.094342         0.448283         0.330591
 C         1.388485        -0.040100         0.000646
 C         1.969855         0.650151        -1.194631
 C         3.401532        -0.035880        -1.064993
 C         2.926374        -1.486463        -1.421296
 C         2.165479        -1.459135        -0.044615
 O         1.464659        -2.525971         0.482224
 C         3.280437        -0.479939         0.446372
 O         2.346297         0.415489         1.047911
 H        -0.502421        -0.139958         1.110235
 H        -0.078406         1.546176         0.549614
 H        -0.807177         0.228946        -0.526489
 H         1.384177         0.528376        -2.194673
 H         1.974778         1.757582        -0.975918
 H         4.330571         0.243115        -1.467369
 H         2.304708        -1.610467        -2.362543
 H         3.850439        -2.094726        -1.291270
 H         1.831457        -3.427699         0.314094
 H         4.213304        -0.594652         1.079764
