19
Iteration:  4210
 C        -0.101573         0.224442         0.237916
 C         1.401009         0.045972        -0.024071
 C         2.084541         0.791292        -1.169455
 C         3.385097        -0.075861        -1.173971
 C         2.872086        -1.485310        -1.455351
 C         2.111413        -1.349520        -0.067718
 O         1.456380        -2.494188         0.572003
 C         3.232796        -0.521327         0.448092
 O         2.378944         0.403626         1.148134
 H        -0.501853        -0.194532         1.124099
 H        -0.461883         1.260817         0.481360
 H        -0.609642        -0.192248        -0.718156
 H         1.502333         0.543003        -2.131506
 H         2.211443         1.870583        -0.935590
 H         4.298772         0.190998        -1.683630
 H         2.295899        -1.591185        -2.441729
 H         3.653545        -2.330550        -1.536531
 H         2.195127        -2.942202         1.097565
 H         4.155925        -0.884682         1.021646
