19
Iteration:  3602
 C        -0.017399         0.193829         0.379915
 C         1.405636         0.100341        -0.039169
 C         2.107789         0.826417        -1.264850
 C         3.322920        -0.084118        -1.164865
 C         2.899597        -1.464803        -1.473694
 C         2.097700        -1.407138        -0.073286
 O         1.534132        -2.498618         0.626202
 C         3.238640        -0.477483         0.446936
 O         2.294323         0.404097         1.066184
 H        -0.050500        -0.299363         1.354383
 H        -0.453053         1.306644         0.526254
 H        -0.720581        -0.330312        -0.428336
 H         1.518863         0.512162        -2.073516
 H         2.505876         1.812799        -0.871951
 H         4.347317         0.126392        -1.424653
 H         2.309633        -1.573269        -2.361118
 H         3.601898        -2.390088        -1.302569
 H         0.956690        -3.081210         0.014447
 H         4.004227        -0.974367         1.099825
