19
Iteration:   878
 C        -0.019515         0.184671         0.377401
 C         1.395758         0.011726        -0.034883
 C         2.065298         0.820755        -1.229133
 C         3.285396        -0.052198        -1.192257
 C         2.780114        -1.570347        -1.505482
 C         2.208993        -1.390729        -0.128153
 O         1.521904        -2.452456         0.685418
 C         3.280471        -0.451073         0.447347
 O         2.307749         0.405312         1.086997
 H        -0.182082        -0.487666         1.197728
 H        -0.194066         1.265377         0.570193
 H        -0.633590         0.033147        -0.385583
 H         1.566576         0.935009        -2.216259
 H         2.150613         1.829562        -0.734139
 H         4.263558         0.294297        -1.413692
 H         2.162691        -1.571602        -2.443666
 H         3.477906        -2.353251        -1.703008
 H         1.850989        -3.276291         0.397084
 H         4.234251        -0.711626         0.901152
