19
Iteration:  4743
 C         0.074880         0.111872         0.368024
 C         1.501595         0.069855         0.042144
 C         2.154823         0.798387        -1.167675
 C         3.332903        -0.099747        -1.143316
 C         2.708545        -1.512818        -1.511999
 C         2.096137        -1.328486        -0.064091
 O         1.311321        -2.368570         0.398236
 C         3.269369        -0.500747         0.437542
 O         2.420126         0.383712         1.137195
 H        -0.010900        -0.211390         1.421405
 H        -0.434121         1.066138         0.213140
 H        -0.349144        -0.769562        -0.098496
 H         1.591247         0.537025        -2.108475
 H         2.427513         1.852790        -0.872171
 H         4.111357         0.192260        -1.807074
 H         2.182797        -1.438072        -2.431937
 H         3.354259        -2.349159        -1.444007
 H         1.638238        -2.688072         1.311342
 H         4.055519        -1.051039         1.057319
