19
Iteration:   679
 C        -0.174075         0.161833         0.447858
 C         1.447478         0.086075         0.053263
 C         2.001740         0.752583        -1.210345
 C         3.347012        -0.061595        -1.161814
 C         2.846875        -1.525151        -1.462716
 C         2.137012        -1.354429        -0.152618
 O         1.542336        -2.400168         0.587990
 C         3.274033        -0.550478         0.354446
 O         2.391040         0.428027         1.093825
 H        -0.628942        -0.371831         1.261755
 H        -0.275848         1.318849         0.665114
 H        -0.666948        -0.092908        -0.460136
 H         1.410740         0.438918        -2.196903
 H         2.118760         1.869597        -1.054749
 H         4.373043         0.257468        -1.668848
 H         2.373096        -1.923491        -2.457665
 H         3.749951        -2.062399        -1.181841
 H         1.867175        -3.256499         0.160924
 H         4.116919        -0.887386         0.952671
