19
Iteration:  4386charge 0 multiplicity 1
 C        -0.034732         0.158370         0.292216
 C         1.410179         0.074290        -0.026786
 C         2.130659         0.814795        -1.154558
 C         3.347736        -0.167866        -1.114518
 C         2.775482        -1.517216        -1.557461
 C         2.207555        -1.468223        -0.128229
 O         1.488306        -2.414369         0.608751
 C         3.224915        -0.508254         0.469881
 O         2.321088         0.442155         1.065447
 H        -0.291269        -0.897149         0.486162
 H        -0.341982         0.918492         1.017640
 H        -0.717304         0.469099        -0.495950
 H         1.578080         0.952783        -2.149588
 H         2.280692         1.861833        -0.693707
 H         4.356662         0.074286        -1.333387
 H         2.098378        -1.460432        -2.411227
 H         3.638086        -2.275573        -1.706023
 H         1.504113        -2.072075         1.540912
 H         4.135120        -0.814798         0.929404
