19
Iteration:  2386
 C        -0.035893         0.171432         0.359758
 C         1.412847         0.043360         0.063527
 C         2.006468         0.779167        -1.136032
 C         3.315154        -0.120912        -1.190865
 C         2.784152        -1.545837        -1.465657
 C         2.173280        -1.379084        -0.068878
 O         1.519678        -2.484120         0.621082
 C         3.327814        -0.504075         0.327382
 O         2.413944         0.482132         1.067594
 H        -0.532389        -0.557652         0.865164
 H        -0.061526         1.062808         0.873682
 H        -0.512544         0.179250        -0.647299
 H         1.379175         0.793059        -2.020050
 H         2.218182         1.815066        -1.002287
 H         4.063233         0.394484        -1.680825
 H         2.071388        -1.457738        -2.261347
 H         3.520984        -2.342349        -1.314412
 H         0.637284        -2.716026         0.181760
 H         4.413968        -0.634802         0.664873
