19
Iteration:  3799
 C        -0.073150         0.046482         0.328307
 C         1.385026         0.057627        -0.022331
 C         2.182130         0.695513        -1.189126
 C         3.418535        -0.076985        -1.108157
 C         2.780570        -1.494095        -1.454334
 C         2.103778        -1.342839        -0.124366
 O         1.435339        -2.453917         0.590803
 C         3.261944        -0.403948         0.440066
 O         2.326694         0.493105         1.099851
 H        -0.211033        -0.380029         1.313141
 H        -0.294941         1.150282         0.334496
 H        -0.677551        -0.373353        -0.516490
 H         1.790816         0.819851        -2.193733
 H         2.423593         1.800023        -0.969215
 H         4.370695         0.120311        -1.543002
 H         2.117489        -1.545976        -2.270994
 H         3.526905        -2.325915        -1.527876
 H         1.829640        -3.217695         0.207323
 H         4.152021        -0.614267         1.022731
