19
Iteration:   733
 C        -0.109278         0.143029         0.363923
 C         1.398899         0.013326        -0.011520
 C         2.059082         0.838292        -1.188956
 C         3.320530        -0.091361        -1.189274
 C         2.729780        -1.492269        -1.450526
 C         2.186467        -1.395046        -0.053106
 O         1.522722        -2.443993         0.580820
 C         3.306122        -0.455163         0.412648
 O         2.407833         0.398776         1.060725
 H        -0.550616        -0.469114         1.159896
 H        -0.358397         1.319305         0.537583
 H        -0.630290        -0.192742        -0.547578
 H         1.498898         0.725037        -2.217008
 H         2.348426         1.810151        -0.737781
 H         4.250277         0.407223        -1.697344
 H         1.912244        -1.570770        -2.306554
 H         3.411096        -2.363443        -1.531685
 H         2.246272        -3.134020         0.821462
 H         4.217450        -0.700610         0.998460
