19
Iteration:  3676
 C        -0.080790         0.181941         0.250109
 C         1.422063         0.107442        -0.007508
 C         2.051902         0.820575        -1.173556
 C         3.343495        -0.170109        -1.060970
 C         2.790494        -1.555936        -1.399967
 C         2.153267        -1.404418        -0.087924
 O         1.597824        -2.494064         0.482197
 C         3.291065        -0.509981         0.414402
 O         2.291314         0.443156         1.091546
 H        -0.377511        -0.234275         1.178485
 H        -0.294289         1.295802         0.350127
 H        -0.563719         0.019602        -0.719427
 H         1.511572         0.716652        -2.167373
 H         2.215042         1.905386        -0.787773
 H         4.090823         0.350983        -1.614449
 H         2.128485        -1.562764        -2.234718
 H         3.530865        -2.387131        -1.496730
 H         1.621130        -2.323062         1.405721
 H         4.188354        -0.771983         1.029384
