19
Iteration:  4498
 C        -0.086874         0.376200         0.383119
 C         1.415391         0.147395         0.091111
 C         2.100070         0.706215        -1.201478
 C         3.369830        -0.116503        -1.162155
 C         2.902168        -1.531659        -1.535647
 C         2.008373        -1.414958        -0.077777
 O         1.583539        -2.582086         0.550038
 C         3.223488        -0.483801         0.431640
 O         2.319908         0.431406         1.121043
 H        -0.319321         0.531608         1.466265
 H        -0.181857         1.329429        -0.138740
 H        -0.806175        -0.210811        -0.129420
 H         1.409654         0.508857        -2.050475
 H         2.248829         1.824415        -0.995750
 H         4.363320         0.335610        -1.465864
 H         2.576519        -1.599270        -2.550091
 H         3.542827        -2.480823        -1.458698
 H         1.448653        -3.286099        -0.074541
 H         4.006486        -0.902578         0.864267
