19
Iteration:  1847charge 0 multiplicity 1
 C         0.026758         0.256140         0.658463
 C         1.437113         0.143619         0.084035
 C         2.027135         0.799920        -1.187152
 C         3.303166        -0.157780        -1.203798
 C         2.685434        -1.523515        -1.508595
 C         2.050099        -1.416163        -0.196769
 O         1.612603        -2.548740         0.522755
 C         3.288291        -0.559797         0.325747
 O         2.439984         0.512188         1.029811
 H        -0.050428        -0.360293         1.623973
 H        -0.279929         1.370464         0.773188
 H        -0.705000        -0.095521        -0.100033
 H         1.501366         0.457276        -2.091422
 H         2.309274         1.904605        -1.005776
 H         4.259212        -0.020044        -1.808999
 H         2.173819        -1.329370        -2.475065
 H         3.361015        -2.364350        -1.483482
 H         0.599512        -2.609707         0.531089
 H         4.116522        -1.040517         0.870902
