19
Iteration:  4895charge 0 multiplicity 1
 C         0.022787         0.129969         0.442558
 C         1.508625         0.011099         0.018089
 C         2.109057         0.728212        -1.133401
 C         3.339724        -0.087013        -1.178611
 C         2.747958        -1.469370        -1.522522
 C         2.097347        -1.379913        -0.133876
 O         1.284854        -2.327170         0.567920
 C         3.265372        -0.518179         0.363697
 O         2.484861         0.412853         1.121007
 H        -0.159766        -0.850267         0.900797
 H         0.011373         0.917816         1.216165
 H        -0.629630         0.352787        -0.375209
 H         1.739386         0.717064        -2.222325
 H         2.239728         1.824896        -0.889202
 H         4.277776         0.316949        -1.393943
 H         2.269693        -1.441208        -2.597898
 H         3.517535        -2.346430        -1.505698
 H         1.104278        -3.101663        -0.012875
 H         4.153551        -0.896975         0.932270
