19
Iteration:  1155
 C        -0.032171         0.346002         0.461444
 C         1.404887        -0.021294         0.017291
 C         2.026750         0.716861        -1.198208
 C         3.295268        -0.059932        -1.234478
 C         2.720840        -1.494969        -1.480145
 C         2.134702        -1.386950        -0.070736
 O         1.551057        -2.489398         0.574794
 C         3.300400        -0.515482         0.362558
 O         2.411787         0.413687         1.111081
 H        -0.439207        -0.076318         1.374195
 H        -0.148169         1.409700         0.601314
 H        -0.641599         0.016769        -0.440270
 H         1.345129         0.624098        -2.119419
 H         2.179808         1.757011        -0.926077
 H         4.249926         0.219632        -1.776506
 H         1.939556        -1.656759        -2.250136
 H         3.441315        -2.228192        -1.700605
 H         2.191449        -3.181218         0.458365
 H         4.202283        -0.848835         0.858350
