19
Iteration:  2936charge 0 multiplicity 1
 C        -0.061338         0.329257         0.363457
 C         1.432296         0.025229         0.018335
 C         1.996881         0.764126        -1.222334
 C         3.312525        -0.054569        -1.136360
 C         2.796487        -1.501992        -1.516828
 C         2.167621        -1.461159        -0.144498
 O         1.559382        -2.479905         0.571544
 C         3.234171        -0.536037         0.425372
 O         2.345433         0.383075         1.085956
 H        -0.293038        -0.254783         1.258852
 H        -0.156734         1.471650         0.608756
 H        -0.759541         0.147428        -0.447611
 H         1.501483         0.508578        -2.149844
 H         2.147588         1.816386        -0.869826
 H         4.281902         0.363967        -1.451340
 H         2.359753        -1.833246        -2.487087
 H         3.541429        -2.329589        -1.363237
 H         2.133224        -2.573063         1.381274
 H         4.152293        -0.715254         0.890726
