19
Iteration:  4436charge 0 multiplicity 1
 C        -0.079879         0.250779         0.267085
 C         1.387115         0.083268         0.059145
 C         2.059948         0.723249        -1.131314
 C         3.346983        -0.130949        -1.133449
 C         2.845873        -1.549494        -1.527757
 C         2.115552        -1.368100        -0.121702
 O         1.567795        -2.478582         0.574301
 C         3.250695        -0.522398         0.485337
 O         2.405790         0.433164         1.099070
 H        -0.486195        -0.418052         1.064203
 H        -0.260168         1.304248         0.544912
 H        -0.725325         0.034818        -0.654732
 H         1.447192         0.688216        -2.017110
 H         2.322697         1.734182        -0.976703
 H         4.138730         0.418941        -1.672458
 H         2.263508        -1.485965        -2.497102
 H         3.655036        -2.258032        -1.499629
 H         0.610382        -2.462125         0.534135
 H         4.283158        -0.834838         0.980067
