19
Iteration:  1149
 C        -0.086597         0.365258         0.412851
 C         1.406132        -0.016896         0.064500
 C         1.987527         0.731322        -1.221931
 C         3.342252        -0.060931        -1.257282
 C         2.720824        -1.500332        -1.505635
 C         2.170719        -1.419351        -0.073928
 O         1.525820        -2.509384         0.606128
 C         3.317930        -0.498590         0.355104
 O         2.440160         0.411474         1.127270
 H        -0.301345        -0.143243         1.387804
 H        -0.189027         1.446404         0.684672
 H        -0.747961        -0.025252        -0.333105
 H         1.329691         0.663654        -2.070604
 H         2.087605         1.829058        -1.060836
 H         4.243861         0.252356        -1.730787
 H         1.934475        -1.344345        -2.268812
 H         3.574456        -2.304650        -1.497247
 H         2.042255        -3.325001         0.301420
 H         4.200055        -0.854262         0.913856
