19
Iteration:   448charge 0 multiplicity 1
 C        -0.081768         0.220764         0.332056
 C         1.444163         0.087085         0.055949
 C         2.025035         0.805718        -1.085791
 C         3.262375        -0.046126        -1.284390
 C         2.787734        -1.604353        -1.464084
 C         2.147863        -1.405462        -0.043869
 O         1.626532        -2.581483         0.496049
 C         3.236600        -0.462260         0.388173
 O         2.429642         0.476282         1.124627
 H        -0.553944        -0.340499         1.182490
 H        -0.352212         1.302142         0.553913
 H        -0.630376        -0.178403        -0.481425
 H         1.356067         0.747418        -2.029129
 H         2.252721         1.917432        -0.736152
 H         4.108945         0.316660        -1.832197
 H         2.236223        -1.922809        -2.363284
 H         3.750711        -2.199063        -1.420164
 H         0.824592        -2.323140         0.926803
 H         4.187986        -0.948385         0.832826
