19
Iteration:  2116charge 0 multiplicity 1
 C         0.024171         0.235266         0.476475
 C         1.378842         0.078278        -0.024569
 C         2.124528         0.798064        -1.179068
 C         3.334555        -0.090331        -1.159655
 C         2.661197        -1.525390        -1.543850
 C         2.185099        -1.448310        -0.158362
 O         1.477985        -2.483214         0.623377
 C         3.251891        -0.496273         0.380155
 O         2.375659         0.401726         1.040441
 H         0.068757        -0.232424         1.483627
 H        -0.258177         1.224242         0.779366
 H        -0.765137        -0.147681        -0.255142
 H         1.465691         0.930186        -2.062923
 H         2.396743         1.824901        -1.067700
 H         4.202581         0.300289        -1.646618
 H         1.994902        -1.584786        -2.466860
 H         3.373662        -2.362921        -1.767271
 H         2.109163        -2.604713         1.346537
 H         4.159579        -0.827096         0.879908
