19
Iteration:  3130
 C        -0.134465         0.261676         0.284304
 C         1.389849         0.096663         0.019096
 C         2.073082         0.794115        -1.214210
 C         3.256918        -0.088857        -1.083304
 C         2.812312        -1.573374        -1.530784
 C         2.182006        -1.401934        -0.115058
 O         1.565777        -2.461846         0.545117
 C         3.316840        -0.562821         0.432262
 O         2.348608         0.413458         1.097919
 H        -0.474950        -0.511437         1.105622
 H        -0.450517         1.231308         0.745037
 H        -0.620163         0.168958        -0.670771
 H         1.368245         0.565225        -2.043915
 H         2.388098         1.827942        -0.855077
 H         4.222391         0.437421        -1.424490
 H         2.153074        -1.743961        -2.312398
 H         3.700641        -2.326313        -1.377062
 H         2.061855        -2.660106         1.340622
 H         4.194490        -0.686578         1.031165
