19
Iteration:   261
 C        -0.006923         0.230644         0.272339
 C         1.440840         0.009763         0.013838
 C         1.969383         0.729419        -1.180525
 C         3.313125        -0.005448        -1.152665
 C         2.759230        -1.429934        -1.553723
 C         2.138114        -1.400521        -0.079637
 O         1.630587        -2.537268         0.631600
 C         3.268540        -0.502880         0.395644
 O         2.386200         0.403477         1.164232
 H        -0.377070        -0.307131         1.165873
 H        -0.328564         1.274504         0.376340
 H        -0.554884        -0.307038        -0.520162
 H         1.461809         0.590373        -2.175198
 H         2.135837         1.817589        -0.964277
 H         4.005093         0.431155        -1.695259
 H         2.291768        -1.587250        -2.497993
 H         3.578786        -2.177897        -1.442892
 H         0.719174        -2.476631         0.875463
 H         4.155353        -0.857626         0.909428
