19
Iteration:  2798
 C        -0.063413         0.253693         0.345267
 C         1.395837         0.049375        -0.032213
 C         2.108743         0.747860        -1.244962
 C         3.366166        -0.098197        -1.130390
 C         2.732944        -1.486955        -1.561714
 C         2.074002        -1.408918        -0.045996
 O         1.610797        -2.571366         0.566819
 C         3.203492        -0.458838         0.450319
 O         2.355309         0.467673         1.109765
 H        -0.209206        -0.390241         1.208241
 H        -0.346085         1.233143         0.690672
 H        -0.744007         0.187524        -0.542576
 H         1.515336         0.558927        -2.186775
 H         2.217697         1.741181        -0.826828
 H         4.405461         0.277316        -1.309281
 H         2.003293        -1.482974        -2.440127
 H         3.417138        -2.289981        -1.698045
 H         2.140644        -2.783782         1.335873
 H         4.260549        -0.735302         0.918005
