19
Iteration:   236charge 0 multiplicity 1
 C        -0.127339         0.167310         0.395567
 C         1.406404         0.060692         0.029653
 C         2.061810         0.763283        -1.165912
 C         3.347001        -0.141873        -1.074429
 C         2.693905        -1.487822        -1.475505
 C         2.142170        -1.383992        -0.059447
 O         1.687392        -2.532458         0.447361
 C         3.234413        -0.464942         0.411026
 O         2.415365         0.519381         1.066535
 H        -0.512251        -0.460664         1.179412
 H        -0.578255         1.131757         0.534647
 H        -0.643672        -0.377885        -0.472560
 H         1.706917         0.524824        -2.263872
 H         2.246210         1.856594        -1.101109
 H         4.316275         0.126235        -1.573912
 H         2.211155        -1.503846        -2.421020
 H         3.476979        -2.288684        -1.566396
 H         0.891544        -2.421342         1.036760
 H         4.084693        -0.692367         1.035452
