19
Iteration:  2886
 C        -0.054457         0.247829         0.456228
 C         1.399943         0.031601        -0.006537
 C         2.023924         0.758751        -1.249373
 C         3.311686        -0.090004        -1.126434
 C         2.798424        -1.536197        -1.487518
 C         2.169883        -1.383801        -0.066137
 O         1.575294        -2.568943         0.492011
 C         3.291662        -0.431641         0.447843
 O         2.387327         0.475408         1.101472
 H        -0.384521        -0.214597         1.384557
 H        -0.180100         1.273992         0.298816
 H        -0.722524        -0.193194        -0.372064
 H         1.596456         0.369199        -2.204180
 H         2.158735         1.832620        -1.131881
 H         4.263225         0.230077        -1.627875
 H         2.094931        -1.528097        -2.369018
 H         3.459449        -2.297868        -1.821451
 H         0.762368        -2.372355         1.032880
 H         4.198926        -0.927534         1.041108
