19
Iteration:   492charge 0 multiplicity 1
 C         0.002713         0.229246         0.448718
 C         1.409213        -0.029619        -0.054369
 C         1.974058         0.745178        -1.235494
 C         3.357698        -0.044034        -1.168621
 C         2.813251        -1.471418        -1.485831
 C         2.147456        -1.374765        -0.141372
 O         1.585429        -2.511573         0.549722
 C         3.251538        -0.519822         0.443147
 O         2.312722         0.386684         1.095025
 H        -0.059022        -0.276717         1.443174
 H        -0.060521         1.337359         0.667946
 H        -0.843335         0.075204        -0.174871
 H         1.407048         0.553707        -2.215603
 H         2.219916         1.939029        -1.222002
 H         4.268064         0.371015        -1.638854
 H         2.142037        -1.637552        -2.355736
 H         3.621697        -2.212913        -1.562311
 H         1.205541        -2.069243         1.294414
 H         4.191795        -0.673889         1.110112
