19
Iteration:  2894
 C        -0.082414         0.245659         0.451725
 C         1.370253         0.084254         0.053753
 C         2.104300         0.764888        -1.271782
 C         3.351933        -0.084453        -1.116068
 C         2.777023        -1.574436        -1.528341
 C         2.068389        -1.381513        -0.053393
 O         1.622688        -2.613869         0.487878
 C         3.324958        -0.456268         0.418591
 O         2.331720         0.459499         1.058538
 H        -0.191880        -0.061602         1.495787
 H        -0.389945         1.408457         0.612556
 H        -0.757015        -0.156337        -0.331039
 H         1.588820         0.544761        -2.261596
 H         2.282546         1.875849        -1.084002
 H         4.338250         0.221485        -1.519043
 H         1.998769        -1.600268        -2.386851
 H         3.662638        -2.232940        -1.645827
 H         0.899098        -2.367364         1.185449
 H         4.263260        -0.513138         1.074455
