19
Iteration:  1353
 C        -0.013586         0.239046         0.476422
 C         1.431012         0.096767         0.137547
 C         2.049788         0.790747        -1.270760
 C         3.280144        -0.153180        -1.216824
 C         2.618858        -1.512893        -1.521389
 C         2.141378        -1.382129        -0.058352
 O         1.534810        -2.416125         0.581458
 C         3.265752        -0.505323         0.344563
 O         2.503227         0.390238         1.133393
 H        -0.190427        -0.600775         1.178216
 H        -0.218603         1.319185         0.679579
 H        -0.763525         0.057634        -0.450759
 H         1.650112         0.538945        -2.296000
 H         2.132116         1.861403        -1.060551
 H         4.235103         0.121467        -1.726873
 H         1.987744        -1.539585        -2.441771
 H         3.423698        -2.245202        -1.475741
 H         1.536512        -3.314389         0.124506
 H         4.255659        -0.820188         0.689667
