19
Iteration:  2186charge 0 multiplicity 1
 C         0.021676         0.283230         0.401866
 C         1.452507        -0.059730         0.076132
 C         2.038708         0.736283        -1.196167
 C         3.266759        -0.047809        -1.239595
 C         2.762391        -1.480014        -1.452615
 C         2.103300        -1.439797        -0.129129
 O         1.411037        -2.466940         0.595097
 C         3.348190        -0.457431         0.379412
 O         2.463042         0.427588         1.060539
 H        -0.326746        -0.477378         1.122577
 H         0.019100         1.193779         1.051157
 H        -0.534540         0.432252        -0.489378
 H         1.294791         0.512885        -1.963909
 H         1.843913         1.848660        -1.021934
 H         4.159145         0.554541        -1.709328
 H         1.992943        -1.752325        -2.327395
 H         3.448377        -2.346542        -1.541451
 H         1.932393        -3.303651         0.619675
 H         4.197868        -0.613598         1.031547
