19
Iteration:   707
 C         0.016224         0.149029         0.387066
 C         1.442574         0.046479        -0.074401
 C         2.079151         0.759749        -1.203307
 C         3.338070        -0.108128        -1.140189
 C         2.705664        -1.444002        -1.569435
 C         2.154821        -1.416957        -0.096475
 O         1.542927        -2.465587         0.674426
 C         3.246409        -0.436075         0.400871
 O         2.273822         0.456933         1.109573
 H        -0.276977        -0.463898         1.283893
 H        -0.023236         1.168352         0.705298
 H        -0.725944        -0.224932        -0.377659
 H         1.631942         0.568228        -2.137542
 H         2.351618         1.701919        -0.792398
 H         4.246879         0.232723        -1.551191
 H         2.055503        -1.436601        -2.396571
 H         3.547559        -2.205805        -1.686055
 H         2.002985        -3.313476         0.349030
 H         4.253447        -0.648212         0.955092
