19
Iteration:  4953
 C         0.043686         0.451267         0.440651
 C         1.434496         0.055666         0.065314
 C         2.061468         0.817020        -1.125915
 C         3.380015        -0.095297        -1.137379
 C         2.689279        -1.472302        -1.574026
 C         2.054199        -1.430174        -0.168383
 O         1.493986        -2.559680         0.490688
 C         3.287914        -0.589950         0.403976
 O         2.358508         0.313726         1.102837
 H        -0.189469         0.359283         1.514403
 H        -0.200041         1.513818         0.282155
 H        -0.708021        -0.074501        -0.095825
 H         1.597865         0.688560        -2.195107
 H         2.233136         1.863237        -0.795743
 H         4.397256         0.255998        -1.605394
 H         2.202736        -1.305919        -2.538600
 H         3.309922        -2.381728        -1.631391
 H         2.154382        -3.107811         0.993159
 H         4.078224        -0.883890         1.063182
