19
Iteration:  3091charge 0 multiplicity 1
 C        -0.027795         0.348793         0.323101
 C         1.409471        -0.004415        -0.026176
 C         2.058097         0.748082        -1.172497
 C         3.327847        -0.068227        -1.083572
 C         2.749450        -1.539304        -1.455857
 C         2.075528        -1.423656        -0.126130
 O         1.745770        -2.552029         0.548725
 C         3.245331        -0.486783         0.457266
 O         2.263147         0.398310         1.051046
 H        -0.227633        -0.074153         1.260683
 H         0.004577         1.466127         0.466922
 H        -0.823277         0.083342        -0.397970
 H         1.582829         0.949207        -2.125662
 H         2.140801         1.820750        -1.015605
 H         4.253844         0.321826        -1.454948
 H         2.148829        -1.557892        -2.464415
 H         3.565598        -2.230088        -1.417913
 H         0.943946        -2.398403         1.047334
 H         4.151536        -0.990462         0.851541
