19
Iteration:   543
 C        -0.011038         0.196890         0.352304
 C         1.394840         0.017245         0.016865
 C         1.986740         0.768633        -1.207709
 C         3.282777        -0.097192        -1.159329
 C         2.734952        -1.450296        -1.479997
 C         2.153698        -1.335189        -0.058683
 O         1.552208        -2.510498         0.523478
 C         3.244712        -0.490204         0.416505
 O         2.454265         0.443348         1.097509
 H        -0.398226        -0.599766         1.046762
 H        -0.390842         1.156731         0.672928
 H        -0.566327        -0.155020        -0.571829
 H         1.580259         0.479420        -2.172983
 H         2.142186         1.779263        -0.968188
 H         4.115295         0.216975        -1.688697
 H         2.132002        -1.509653        -2.363999
 H         3.501253        -2.290291        -1.366688
 H         2.132567        -2.687922         1.249861
 H         4.142352        -0.795402         1.007127
