19
Iteration:  2226
 C        -0.067538         0.189242         0.490454
 C         1.417432         0.119454         0.007528
 C         2.132561         0.816013        -1.210671
 C         3.410369        -0.054070        -1.263233
 C         2.684523        -1.559010        -1.512656
 C         2.025403        -1.315843        -0.119193
 O         1.605240        -2.444507         0.671764
 C         3.175083        -0.537268         0.409862
 O         2.412812         0.363456         1.064693
 H        -0.182968        -0.410843         1.450930
 H        -0.271854         1.196300         0.819563
 H        -0.804433        -0.027503        -0.304652
 H         1.658838         0.591094        -2.174863
 H         2.373038         1.812594        -1.021389
 H         4.286032         0.150602        -1.741576
 H         2.065547        -1.774965        -2.374542
 H         3.438868        -2.318725        -1.624592
 H         1.652225        -3.233976         0.067016
 H         4.096871        -0.749073         0.843342
