19
Iteration:   568charge 0 multiplicity 1
 C        -0.032292         0.184050         0.288754
 C         1.437367        -0.019814         0.045265
 C         1.987061         0.799379        -1.176434
 C         3.330506        -0.048273        -1.184567
 C         2.751854        -1.525107        -1.606318
 C         2.260932        -1.391054        -0.091258
 O         1.453114        -2.449152         0.627802
 C         3.345512        -0.432329         0.383186
 O         2.359504         0.368120         1.150714
 H        -0.524455        -0.368879         1.106366
 H        -0.160512         1.247737         0.627226
 H        -0.701291        -0.066043        -0.483719
 H         1.399229         0.329910        -1.992218
 H         1.906489         1.798926        -0.800049
 H         4.187062         0.283276        -1.739550
 H         2.095527        -1.317731        -2.471134
 H         3.396771        -2.407484        -1.677199
 H         2.081108        -2.643458         1.356994
 H         4.281299        -0.528759         1.054433
