19
Iteration:   148charge 0 multiplicity 1
 C        -0.032482         0.196761         0.265463
 C         1.369748         0.064159        -0.004428
 C         2.062663         0.820913        -1.202544
 C         3.269456        -0.086018        -1.145089
 C         2.791191        -1.567912        -1.418825
 C         2.205726        -1.427742        -0.078473
 O         1.626551        -2.453721         0.587950
 C         3.224786        -0.472027         0.460436
 O         2.327274         0.435545         1.118535
 H        -0.308361        -0.599829         0.980571
 H        -0.198503         1.170023         0.774893
 H        -0.683787        -0.032347        -0.652149
 H         1.313001         0.716798        -2.134961
 H         2.278697         1.903056        -0.954733
 H         4.183214         0.482865        -1.610678
 H         2.073685        -1.483049        -2.252471
 H         3.534073        -2.420957        -1.553808
 H         1.564526        -3.274611        -0.004979
 H         4.225565        -0.670821         0.936170
