19
Iteration:   319
 C        -0.021586         0.138048         0.441094
 C         1.432097         0.058426        -0.011288
 C         2.022577         0.763858        -1.290615
 C         3.393232        -0.046358        -1.080392
 C         2.797184        -1.422888        -1.485251
 C         1.999788        -1.416866        -0.090214
 O         1.682492        -2.540429         0.628449
 C         3.186248        -0.479906         0.382949
 O         2.360812         0.450257         1.053412
 H        -0.248689        -0.536644         1.338646
 H        -0.324398         1.236705         0.666838
 H        -0.689794         0.067836        -0.391602
 H         1.491207         0.585011        -2.157476
 H         2.333502         1.816140        -1.246323
 H         4.467355         0.342463        -1.508332
 H         2.218192        -1.431236        -2.539888
 H         3.377047        -2.321892        -1.353248
 H         0.771099        -2.862969         0.264460
 H         4.137979        -0.750082         0.967852
