19
Iteration:  3906
 C        -0.100485         0.172633         0.351847
 C         1.364458         0.072196         0.026470
 C         2.194622         0.787315        -1.195657
 C         3.393279        -0.095025        -1.142256
 C         2.818420        -1.561817        -1.423299
 C         2.098942        -1.383531        -0.122088
 O         1.558434        -2.471285         0.509902
 C         3.247965        -0.471859         0.387367
 O         2.276860         0.441443         1.063991
 H        -0.543004        -0.573210         0.909663
 H        -0.292757         1.134683         0.873343
 H        -0.621094         0.200294        -0.633174
 H         1.674476         0.515408        -2.128976
 H         2.406946         1.809861        -0.746137
 H         4.299653         0.254988        -1.491398
 H         2.212466        -1.553322        -2.327794
 H         3.455468        -2.546909        -1.426014
 H         1.770055        -2.458670         1.410498
 H         3.998601        -0.708839         1.122888
