19
Iteration:  1163
 C         0.062104         0.295614         0.465184
 C         1.401406         0.042178         0.041853
 C         2.033929         0.739320        -1.158308
 C         3.243657        -0.140381        -1.179440
 C         2.687650        -1.505209        -1.495493
 C         2.094803        -1.383990        -0.108462
 O         1.595038        -2.455339         0.538982
 C         3.256406        -0.484160         0.396575
 O         2.387177         0.391715         1.051829
 H        -0.437413        -0.256631         1.374952
 H         0.031973         1.460312         0.395638
 H        -0.659153         0.146957        -0.372777
 H         1.587799         0.641797        -2.120510
 H         2.205571         1.760627        -0.809150
 H         4.069947         0.314852        -1.732658
 H         1.998090        -1.873681        -2.354633
 H         3.498150        -2.272641        -1.615180
 H         2.291561        -3.047359         0.750540
 H         4.269197        -0.781617         0.830498
