19
Iteration:  1532charge 0 multiplicity 1
 C         0.060391         0.238574         0.479240
 C         1.455188         0.142209         0.075515
 C         1.991110         0.825509        -1.169496
 C         3.282950        -0.133181        -1.268114
 C         2.683171        -1.524751        -1.567572
 C         2.195634        -1.458941        -0.088389
 O         1.384818        -2.482799         0.649530
 C         3.304238        -0.477604         0.284347
 O         2.524126         0.412148         1.126097
 H        -0.116403        -0.431743         1.404987
 H        -0.139031         1.259066         0.966959
 H        -0.692047        -0.114788        -0.185003
 H         1.476294         0.748645        -2.157825
 H         2.093190         1.950030        -0.873412
 H         4.171883         0.110510        -1.899925
 H         2.017306        -1.682874        -2.321068
 H         3.377945        -2.355237        -1.788048
 H         1.268034        -3.225539         0.035782
 H         4.265074        -0.631132         0.809006
