19
Iteration:  2732
 C        -0.080795         0.261099         0.459804
 C         1.375084         0.006239         0.000422
 C         2.048543         0.728800        -1.238461
 C         3.404389        -0.062965        -1.162849
 C         2.849720        -1.509532        -1.529864
 C         2.191175        -1.371317        -0.065266
 O         1.500846        -2.407833         0.584683
 C         3.241757        -0.524584         0.464664
 O         2.315900         0.392442         0.989474
 H        -0.209114        -0.387932         1.292253
 H        -0.352030         1.278239         0.848469
 H        -0.727119        -0.067009        -0.382279
 H         1.442058         0.499592        -2.178778
 H         2.030747         1.824962        -1.112932
 H         4.378889         0.297580        -1.368466
 H         2.099306        -1.615031        -2.375722
 H         3.624459        -2.207631        -1.469631
 H         2.031432        -3.249256         0.647778
 H         4.185610        -0.621903         1.109099
