19
Iteration:  1826
 C         0.074311         0.312468         0.588490
 C         1.375429         0.019766         0.018426
 C         2.027838         0.799123        -1.248563
 C         3.242624        -0.096803        -1.218954
 C         2.704202        -1.476108        -1.578118
 C         2.092461        -1.390925        -0.154810
 O         1.595705        -2.480244         0.630479
 C         3.247964        -0.566054         0.347166
 O         2.467673         0.366565         1.078613
 H         0.170931        -0.353809         1.478638
 H         0.010888         1.433506         0.838354
 H        -0.728665         0.158855        -0.083697
 H         1.451871         0.596355        -2.132823
 H         2.269866         1.834904        -0.842932
 H         4.230744         0.420430        -1.493927
 H         1.868513        -1.691052        -2.304732
 H         3.413499        -2.293720        -1.421579
 H         0.867439        -2.801743         0.114596
 H         4.192556        -0.870474         0.799121
