19
Iteration:  3761
 C        -0.018772         0.147405         0.289305
 C         1.447745         0.057369         0.005557
 C         2.094086         0.715697        -1.249782
 C         3.371668        -0.063877        -1.114959
 C         2.854435        -1.486045        -1.407640
 C         2.081733        -1.386265        -0.065634
 O         1.414518        -2.422122         0.568748
 C         3.261367        -0.424054         0.377695
 O         2.353391         0.421097         1.131409
 H        -0.430676        -0.663188         0.958109
 H        -0.252929         1.112130         0.683189
 H        -0.628860        -0.046752        -0.580774
 H         1.512456         0.446110        -2.190863
 H         2.048652         1.783244        -0.937749
 H         4.322854         0.449560        -1.480239
 H         2.292079        -1.837619        -2.360582
 H         3.723552        -2.115465        -1.230891
 H         1.816704        -3.305503         0.236971
 H         4.132154        -0.686106         1.031585
