19
Iteration:  4424
 C        -0.100394         0.179772         0.219587
 C         1.419053         0.037540         0.007619
 C         2.018916         0.779852        -1.162795
 C         3.332184        -0.119112        -1.094378
 C         2.768325        -1.496986        -1.415498
 C         2.134070        -1.356889        -0.084189
 O         1.581365        -2.383825         0.536786
 C         3.300096        -0.528398         0.365200
 O         2.452294         0.371798         1.148715
 H        -0.520904        -0.638835         0.914237
 H        -0.361872         1.114305         0.758127
 H        -0.528145         0.156936        -0.825949
 H         1.560987         0.598130        -2.096468
 H         2.176193         1.801646        -0.947096
 H         4.347003         0.229949        -1.478340
 H         2.117753        -1.790945        -2.294448
 H         3.344287        -2.438858        -1.245505
 H         0.595392        -2.102269         0.572372
 H         4.208649        -0.850975         0.992499
