19
Iteration:  2740
 C        -0.081306         0.281473         0.417450
 C         1.424012        -0.008381        -0.007883
 C         2.028244         0.726824        -1.262463
 C         3.373010        -0.063474        -1.166248
 C         2.878571        -1.487625        -1.483060
 C         2.140992        -1.451835        -0.137555
 O         1.495125        -2.416606         0.608066
 C         3.246663        -0.485276         0.469897
 O         2.331877         0.377882         1.059914
 H        -0.392940        -0.339543         1.234957
 H        -0.119056         1.372374         0.764193
 H        -0.825044         0.062052        -0.253336
 H         1.356780         0.600711        -2.071526
 H         1.948450         1.822732        -1.081408
 H         4.247480         0.288640        -1.633506
 H         2.273421        -1.624721        -2.398794
 H         3.774868        -2.094730        -1.554767
 H         2.177646        -3.105664         0.715653
 H         4.134420        -0.668781         0.970514
