19
Iteration:  2180charge 0 multiplicity 1
 C        -0.001241         0.297054         0.444862
 C         1.487933        -0.060279         0.038785
 C         1.950887         0.747267        -1.227792
 C         3.255477        -0.009582        -1.218738
 C         2.738037        -1.474843        -1.447326
 C         2.188217        -1.454362        -0.121801
 O         1.380140        -2.488587         0.573836
 C         3.375320        -0.434546         0.376356
 O         2.459254         0.420752         1.082344
 H        -0.408055        -0.447702         1.126630
 H        -0.044139         1.230679         1.031673
 H        -0.497079         0.496474        -0.592997
 H         1.395256         0.391358        -2.130819
 H         2.183342         1.806541        -1.051251
 H         4.133248         0.306091        -1.757533
 H         2.203522        -1.716914        -2.303034
 H         3.464909        -2.326794        -1.460922
 H         1.863780        -3.243364         0.854952
 H         4.269930        -0.900958         0.993321
