19
Iteration:  1580
 C         0.014818         0.233840         0.651549
 C         1.433248         0.075320         0.047472
 C         2.047589         0.803386        -1.244264
 C         3.266162        -0.144706        -1.228606
 C         2.731081        -1.513131        -1.586559
 C         2.071387        -1.379992        -0.173048
 O         1.421901        -2.431151         0.585081
 C         3.343218        -0.566995         0.341439
 O         2.495712         0.412382         1.071003
 H        -0.379886        -0.500902         1.306052
 H        -0.042589         1.207075         1.096517
 H        -0.731385         0.161281        -0.204799
 H         1.171494         0.686509        -1.964210
 H         2.263258         1.869224        -1.088402
 H         4.282372         0.198605        -1.655880
 H         2.044446        -1.537066        -2.471006
 H         3.371849        -2.319632        -1.844416
 H         2.110823        -2.875613         1.122319
 H         4.270937        -0.845710         0.848645
