19
Iteration:  1307charge 0 multiplicity 1
 C        -0.051982         0.402353         0.558269
 C         1.427174         0.036639         0.023097
 C         2.074747         0.772290        -1.223739
 C         3.264907        -0.038610        -1.192585
 C         2.705523        -1.568655        -1.514523
 C         2.167988        -1.432954        -0.122152
 O         1.566528        -2.517608         0.634926
 C         3.307660        -0.508276         0.313642
 O         2.406937         0.355109         1.076997
 H        -0.357282        -0.123947         1.472116
 H        -0.121760         1.478307         0.373025
 H        -0.886584         0.127482        -0.242847
 H         1.402916         0.686011        -2.095998
 H         2.316464         1.753537        -1.007091
 H         4.272263         0.421005        -1.609748
 H         1.826516        -1.500928        -2.211568
 H         3.507151        -2.199069        -1.603803
 H         1.389473        -3.317530         0.093049
 H         4.262455        -0.847383         0.685893
