19
Iteration:  1633
 C        -0.029157         0.427487         0.576081
 C         1.382376         0.108664         0.115644
 C         2.074214         0.790402        -1.145124
 C         3.252285        -0.142608        -1.246172
 C         2.599610        -1.525068        -1.616327
 C         2.097855        -1.422764        -0.102519
 O         1.673713        -2.538107         0.512409
 C         3.267771        -0.589569         0.281315
 O         2.508081         0.378999         1.110660
 H        -0.437328        -0.306803         1.282420
 H        -0.356633         1.493518         0.670562
 H        -0.648566         0.076060        -0.324582
 H         1.381533         0.549673        -2.013914
 H         2.386185         1.820858        -0.841699
 H         4.171812         0.258446        -1.867604
 H         2.025403        -1.558433        -2.494096
 H         3.341823        -2.332525        -1.621982
 H         1.301854        -2.417469         1.399425
 H         4.130356        -0.966107         0.825972
