19
Iteration:  3709charge 0 multiplicity 1
 C        -0.035144         0.240562         0.342244
 C         1.413730         0.062859        -0.064353
 C         2.078363         0.762808        -1.283386
 C         3.373816        -0.081250        -1.054554
 C         2.882489        -1.487190        -1.443269
 C         2.045799        -1.409686        -0.130020
 O         1.559096        -2.551202         0.576015
 C         3.213376        -0.493596         0.435427
 O         2.268769         0.426194         1.107639
 H        -0.543163        -0.340199         1.063041
 H         0.117053         1.296361         0.680438
 H        -0.723191         0.275728        -0.541220
 H         1.603740         0.739179        -2.310987
 H         2.111450         1.920071        -1.145598
 H         4.262176         0.270084        -1.573502
 H         2.330029        -1.456502        -2.349289
 H         3.505908        -2.416467        -1.375734
 H         2.286492        -2.813751         1.225102
 H         4.061765        -0.778508         1.105181
