19
Iteration:  2416charge 0 multiplicity 1
 C        -0.017814         0.192643         0.459156
 C         1.351667         0.049076        -0.028420
 C         2.086024         0.781541        -1.293187
 C         3.391785        -0.117477        -1.180461
 C         2.739006        -1.494586        -1.498201
 C         2.132799        -1.345795        -0.139844
 O         1.610097        -2.499566         0.596393
 C         3.260871        -0.554480         0.432234
 O         2.325390         0.446870         1.125550
 H        -0.199549        -0.411762         1.372849
 H        -0.140586         1.314571         0.746904
 H        -0.730225        -0.135182        -0.358721
 H         1.593137         0.588021        -2.254783
 H         2.211443         1.904921        -1.136012
 H         4.274191         0.315231        -1.751225
 H         2.128780        -1.534942        -2.454741
 H         3.450566        -2.333953        -1.509372
 H         0.835505        -2.307585         1.195584
 H         4.215404        -0.855159         0.924626
