19
Iteration:   432
 C        -0.031422         0.192573         0.384868
 C         1.352379         0.051859         0.008596
 C         2.064537         0.898640        -1.226363
 C         3.269009        -0.086522        -1.146496
 C         2.734609        -1.524949        -1.424337
 C         2.112012        -1.397620        -0.114262
 O         1.651437        -2.551908         0.519728
 C         3.313114        -0.462868         0.381480
 O         2.373934         0.382447         1.060294
 H        -0.201965        -0.423012         1.258102
 H        -0.254524         1.214624         0.618750
 H        -0.658118        -0.291871        -0.449542
 H         1.570736         1.093275        -2.149035
 H         2.332367         1.783313        -0.771830
 H         4.268779         0.228444        -1.586880
 H         1.948902        -1.753044        -2.155950
 H         3.537132        -2.306015        -1.259785
 H         1.014765        -2.428694         1.275733
 H         4.204123        -0.628248         0.911244
