19
Iteration:  2218
 C        -0.091205         0.226028         0.483945
 C         1.376937         0.103986         0.067533
 C         2.154201         0.812420        -1.265720
 C         3.326122        -0.136614        -1.214285
 C         2.717380        -1.570494        -1.520645
 C         2.048866        -1.393613        -0.158648
 O         1.614808        -2.388811         0.618500
 C         3.263765        -0.543911         0.392497
 O         2.423448         0.413444         1.097769
 H        -0.300010        -0.573192         1.210403
 H        -0.296137         1.228990         0.886612
 H        -0.817971        -0.027306        -0.206834
 H         1.507233         0.697635        -2.143510
 H         2.224564         1.910549        -1.058628
 H         4.285439         0.338743        -1.644993
 H         1.886176        -1.558399        -2.300188
 H         3.477233        -2.335010        -1.427528
 H         1.724321        -3.288831         0.182539
 H         4.083333        -0.920138         0.969322
