19
Iteration:  2301
 C         0.010724         0.294129         0.468324
 C         1.465013         0.056370         0.014370
 C         1.989480         0.807446        -1.195843
 C         3.295022        -0.129794        -1.164663
 C         2.738255        -1.534894        -1.521770
 C         2.143586        -1.420006        -0.105786
 O         1.584989        -2.530287         0.500364
 C         3.222873        -0.471883         0.369572
 O         2.420846         0.426036         1.096089
 H        -0.268292        -0.232577         1.459914
 H        -0.341172         1.308143         0.530013
 H        -0.642746        -0.189093        -0.354817
 H         1.416120         0.567843        -2.165973
 H         2.148709         1.849769        -1.041547
 H         4.136145         0.287228        -1.542564
 H         2.217927        -1.869801        -2.376008
 H         3.497317        -2.357228        -1.348348
 H         1.251301        -2.130680         1.340096
 H         4.052640        -0.948829         0.920660
