19
Iteration:  3363charge 0 multiplicity 1
 C        -0.113003         0.270333         0.385180
 C         1.331043         0.038102         0.081699
 C         2.091002         0.756536        -1.180015
 C         3.336553        -0.097370        -1.140180
 C         2.828798        -1.537365        -1.499143
 C         2.122560        -1.411275        -0.081745
 O         1.582118        -2.556705         0.509462
 C         3.328513        -0.422027         0.387216
 O         2.353490         0.426968         1.086731
 H        -0.433726        -0.462767         1.091669
 H        -0.239836         1.286683         0.863799
 H        -0.616057         0.253840        -0.644930
 H         1.575795         0.505023        -2.152211
 H         2.429661         1.844695        -0.965663
 H         4.269867         0.276423        -1.448174
 H         2.229766        -1.578635        -2.435489
 H         3.606231        -2.410028        -1.458115
 H         0.623021        -2.412782         0.853087
 H         4.416903        -0.560301         0.663352
