19
Iteration:  1777charge 0 multiplicity 1
 C         0.015068         0.273016         0.437318
 C         1.423523         0.075084         0.105167
 C         2.012598         0.847583        -1.201157
 C         3.269077        -0.130837        -1.209788
 C         2.591228        -1.489842        -1.525345
 C         2.061822        -1.407798        -0.076926
 O         1.568948        -2.450819         0.625485
 C         3.287411        -0.576853         0.281069
 O         2.559995         0.378646         1.126904
 H        -0.382994        -0.484500         1.159675
 H         0.062454         1.275802         0.861457
 H        -0.684203         0.395774        -0.532280
 H         1.253351         0.673505        -2.052692
 H         2.183504         1.825339        -0.834855
 H         3.999318         0.196320        -1.872768
 H         1.930748        -1.570810        -2.361248
 H         3.499634        -2.039178        -1.702210
 H         1.896234        -3.323499         0.205997
 H         4.189362        -1.041916         0.716988
