19
Iteration:   705
 C         0.013396         0.160385         0.393686
 C         1.438234         0.044727        -0.099177
 C         2.071470         0.753517        -1.200458
 C         3.337359        -0.125063        -1.128176
 C         2.719679        -1.444891        -1.560661
 C         2.148840        -1.405038        -0.097186
 O         1.550506        -2.459077         0.669972
 C         3.247234        -0.443532         0.392517
 O         2.285811         0.449697         1.113484
 H        -0.248553        -0.467585         1.248954
 H        -0.064828         1.124234         0.713182
 H        -0.687617        -0.233764        -0.365188
 H         1.600915         0.578457        -2.094391
 H         2.333610         1.740328        -0.822647
 H         4.204008         0.335146        -1.538554
 H         2.056745        -1.433658        -2.378724
 H         3.486939        -2.206869        -1.634028
 H         1.990855        -3.289053         0.326466
 H         4.160948        -0.638383         0.948172
