19
Iteration:  4742
 C         0.079173         0.109568         0.365500
 C         1.494892         0.074345         0.035066
 C         2.141710         0.801965        -1.169814
 C         3.337933        -0.103943        -1.139371
 C         2.703618        -1.514016        -1.512989
 C         2.095440        -1.331042        -0.062992
 O         1.312653        -2.362124         0.397573
 C         3.265636        -0.501612         0.438612
 O         2.428806         0.384458         1.143283
 H        -0.031682        -0.219792         1.390353
 H        -0.413457         1.046298         0.212345
 H        -0.363558        -0.787337        -0.099286
 H         1.573542         0.509235        -2.107053
 H         2.470006         1.859866        -0.858510
 H         4.118497         0.181558        -1.784736
 H         2.200940        -1.426454        -2.396723
 H         3.370532        -2.355278        -1.457651
 H         1.641501        -2.709006         1.296716
 H         4.078051        -1.035966         1.038334
