19
Iteration:   770
 C        -0.014208         0.183800         0.408087
 C         1.380339         0.110848         0.032334
 C         1.985906         0.711539        -1.223468
 C         3.337121        -0.038623        -1.202194
 C         2.851721        -1.492954        -1.529072
 C         2.145359        -1.368524        -0.139620
 O         1.481349        -2.430870         0.620179
 C         3.254058        -0.532542         0.430994
 O         2.385989         0.366247         1.098422
 H        -0.433070        -0.418572         1.245990
 H        -0.210864         1.324102         0.581866
 H        -0.558664        -0.258478        -0.567605
 H         1.334191         0.602554        -2.116300
 H         2.119583         1.850934        -1.123267
 H         4.221751         0.386649        -1.633778
 H         2.225891        -1.542405        -2.461012
 H         3.688439        -2.192587        -1.457339
 H         2.177663        -2.941190         1.125166
 H         4.203643        -0.823728         0.927200
