19
Iteration:  1322
 C         0.006584         0.367404         0.420128
 C         1.390594         0.020874         0.120050
 C         1.956346         0.781355        -1.141954
 C         3.259272        -0.135722        -1.218842
 C         2.713641        -1.485765        -1.536277
 C         2.103373        -1.441060        -0.095704
 O         1.564492        -2.493379         0.617745
 C         3.283574        -0.527145         0.341277
 O         2.514398         0.414937         1.069672
 H        -0.350936        -0.051049         1.411470
 H        -0.022305         1.478655         0.620701
 H        -0.671664        -0.019222        -0.448704
 H         1.448090         0.720480        -2.177152
 H         2.085183         1.855579        -0.741888
 H         4.103306         0.209470        -1.757014
 H         2.297904        -1.751586        -2.487642
 H         3.518681        -2.306964        -1.587455
 H         1.457186        -3.203700         0.019404
 H         4.248986        -0.801227         0.834158
