19
Iteration:  4637charge 0 multiplicity 1
 C        -0.023760         0.463125         0.334009
 C         1.408775         0.029717         0.028493
 C         2.041986         0.706509        -1.130947
 C         3.322580        -0.100775        -1.059009
 C         2.828981        -1.520656        -1.481391
 C         2.065868        -1.408710        -0.182026
 O         1.701568        -2.623919         0.499762
 C         3.150324        -0.567979         0.425803
 O         2.394509         0.491985         1.086547
 H        -0.868436        -0.130691         0.752618
 H         0.148450         1.268708         1.106848
 H        -0.438327         1.089401        -0.410807
 H         1.527130         0.555898        -2.027394
 H         1.996547         1.697099        -0.898747
 H         4.196748         0.367442        -1.595445
 H         2.236855        -1.828115        -2.341944
 H         3.343293        -2.420221        -1.271091
 H         0.739400        -2.962962         0.365833
 H         3.990365        -0.910755         1.059764
