19
Iteration:  1778charge 0 multiplicity 1
 C         0.012249         0.272630         0.432476
 C         1.426062         0.069987         0.106603
 C         2.013539         0.841792        -1.198613
 C         3.265929        -0.131848        -1.210887
 C         2.597877        -1.493629        -1.526337
 C         2.063840        -1.410176        -0.078160
 O         1.573934        -2.446353         0.624990
 C         3.279874        -0.580863         0.276994
 O         2.558025         0.382465         1.133500
 H        -0.378254        -0.460612         1.197434
 H         0.041252         1.286166         0.867798
 H        -0.665090         0.428782        -0.531283
 H         1.232907         0.682284        -2.040967
 H         2.179133         1.854426        -0.849322
 H         3.995377         0.210121        -1.886308
 H         1.962515        -1.539193        -2.391529
 H         3.483009        -2.018787        -1.682263
 H         1.848451        -3.331166         0.228724
 H         4.216372        -1.069056         0.677379
