19
Iteration:  1228
 C         0.092453         0.176205         0.407418
 C         1.462905         0.028226         0.086603
 C         1.941463         0.768467        -1.123814
 C         3.305100        -0.116398        -1.268967
 C         2.719758        -1.559747        -1.520398
 C         2.174333        -1.329131        -0.096740
 O         1.523366        -2.437789         0.579967
 C         3.259184        -0.496844         0.307682
 O         2.448312         0.425830         1.131427
 H        -0.229985        -0.474154         1.299647
 H         0.050297         1.206877         0.875970
 H        -0.524358         0.074750        -0.481362
 H         1.491311         0.594627        -2.026868
 H         2.141861         1.819406        -0.893264
 H         4.078955         0.376806        -1.837156
 H         1.967017        -1.817821        -2.315851
 H         3.308460        -2.405600        -1.756105
 H         0.536952        -2.238381         0.615084
 H         4.114277        -0.760604         0.979797
