19
Iteration:  1885
 C         0.096297         0.265782         0.464948
 C         1.461721         0.007467         0.088562
 C         1.950211         0.818221        -1.142532
 C         3.260040        -0.117642        -1.227783
 C         2.713361        -1.455602        -1.514194
 C         2.109263        -1.403024        -0.097757
 O         1.477393        -2.488541         0.504953
 C         3.368547        -0.524829         0.315944
 O         2.456787         0.364451         1.079966
 H        -0.121198        -0.188763         1.404582
 H        -0.044360         1.283864         0.608912
 H        -0.611014        -0.350733        -0.110940
 H         1.245586         0.666473        -1.963257
 H         2.033449         1.857317        -1.089261
 H         4.024777         0.258702        -1.873791
 H         1.911222        -1.707352        -2.261577
 H         3.474868        -2.303052        -1.542859
 H         1.232857        -2.003948         1.331454
 H         4.333296        -0.781806         0.827369
