19
Iteration:  3314
 C        -0.055214         0.105582         0.367246
 C         1.388728         0.081187         0.057922
 C         2.099154         0.810571        -1.260096
 C         3.407912        -0.121425        -1.105908
 C         2.795746        -1.488261        -1.490906
 C         2.131362        -1.429334        -0.186538
 O         1.427010        -2.432935         0.568011
 C         3.281205        -0.392936         0.378417
 O         2.355671         0.387792         1.129040
 H        -0.321937        -0.757486         1.064016
 H        -0.219421         1.020002         0.869978
 H        -0.622290        -0.008653        -0.518226
 H         1.636504         0.586357        -2.217900
 H         2.271338         1.796855        -0.938462
 H         4.399452         0.199939        -1.613545
 H         2.137127        -1.758986        -2.362172
 H         3.630810        -2.206892        -1.578148
 H         1.777706        -2.352967         1.423975
 H         4.129035        -0.742872         0.935156
