19
Iteration:  3639charge 0 multiplicity 1
 C        -0.106094         0.184062         0.264196
 C         1.385974         0.047719         0.048895
 C         2.032302         0.760335        -1.140743
 C         3.390716        -0.115559        -1.110877
 C         2.870473        -1.512183        -1.512077
 C         2.159229        -1.370180        -0.105982
 O         1.538297        -2.435173         0.613600
 C         3.315982        -0.510882         0.416466
 O         2.330813         0.397186         1.101440
 H        -0.432007        -0.291072         1.230464
 H        -0.372840         1.171578         0.223992
 H        -0.619696        -0.462947        -0.389280
 H         1.516732         0.706362        -2.161039
 H         2.380276         1.799985        -1.195589
 H         4.331097         0.383103        -1.613886
 H         2.208489        -1.431591        -2.458583
 H         3.644379        -2.240337        -1.653644
 H         0.608411        -2.138816         0.666011
 H         4.185267        -0.856577         0.942160
