19
Iteration:  2572charge 0 multiplicity 1
 C         0.005399         0.276267         0.370007
 C         1.386939         0.029404         0.024291
 C         1.972165         0.684588        -1.249617
 C         3.364972        -0.078376        -1.157436
 C         2.840596        -1.482455        -1.465904
 C         2.168405        -1.408578        -0.086262
 O         1.546087        -2.501914         0.544120
 C         3.259619        -0.454501         0.397762
 O         2.362818         0.403854         1.113733
 H        -0.465679        -0.551562         0.909778
 H        -0.134685         1.166244         0.910866
 H        -0.510648         0.237609        -0.673335
 H         1.333744         0.313592        -2.085931
 H         1.702754         1.720512        -1.249803
 H         4.320725         0.379060        -1.375585
 H         2.107133        -1.608445        -2.227974
 H         3.633884        -2.281203        -1.524463
 H         1.159414        -2.063756         1.318290
 H         4.273402        -0.708267         0.818697
