19
Iteration:  1219
 C         0.063258         0.186589         0.446504
 C         1.468833         0.059614         0.032130
 C         1.954305         0.767139        -1.129111
 C         3.351792        -0.140291        -1.201689
 C         2.689231        -1.561252        -1.539694
 C         2.106868        -1.375328        -0.154915
 O         1.559292        -2.404547         0.584954
 C         3.337974        -0.499709         0.342782
 O         2.409922         0.406655         1.096944
 H        -0.259819        -0.539973         1.277342
 H        -0.105975         1.217120         0.889294
 H        -0.581109         0.071398        -0.510294
 H         1.298890         0.672960        -1.991944
 H         1.888915         1.798580        -0.879000
 H         4.277112         0.303900        -1.685165
 H         1.875121        -1.566470        -2.298050
 H         3.410267        -2.311007        -1.577550
 H         0.677791        -2.168329         0.979035
 H         4.289375        -0.920265         0.674113
