19
Iteration:  2582
 C        -0.049605         0.335290         0.330666
 C         1.443102         0.030218         0.040485
 C         1.972805         0.725485        -1.266762
 C         3.254201        -0.022797        -1.079201
 C         2.839596        -1.615317        -1.429031
 C         2.138133        -1.408190        -0.122854
 O         1.574583        -2.563735         0.515033
 C         3.297287        -0.457442         0.407735
 O         2.376678         0.455943         1.112153
 H        -0.381442        -0.486763         0.916258
 H        -0.211827         1.247779         0.821836
 H        -0.739237         0.258722        -0.591183
 H         1.602990         0.335822        -2.219558
 H         2.014230         1.787169        -1.152797
 H         4.051839         0.475032        -1.509999
 H         2.138756        -1.540013        -2.239270
 H         3.582144        -2.328487        -1.762350
 H         1.690700        -2.422067         1.491481
 H         4.221851        -0.817957         0.978574
