19
Iteration:  2031charge 0 multiplicity 1
 C         0.010020         0.318015         0.543148
 C         1.365591        -0.033713        -0.044114
 C         2.081369         0.823084        -1.196241
 C         3.349795        -0.116425        -1.182198
 C         2.701655        -1.542680        -1.550438
 C         2.128572        -1.410079        -0.114961
 O         1.610883        -2.485164         0.604185
 C         3.296358        -0.482935         0.375667
 O         2.347282         0.393416         1.034450
 H         0.059500        -0.453857         1.409184
 H         0.062589         1.339463         0.833381
 H        -0.840424        -0.093873         0.023456
 H         1.474144         0.730728        -2.197321
 H         2.160072         1.894384        -0.864480
 H         4.263766         0.201520        -1.600092
 H         1.963540        -1.431226        -2.439790
 H         3.401708        -2.404627        -1.531254
 H         0.663004        -2.377791         0.712614
 H         4.201610        -0.769096         0.803458
