19
Iteration:  1003charge 0 multiplicity 1
 C         0.026974         0.245660         0.422529
 C         1.412057        -0.013438        -0.012044
 C         2.023487         0.805077        -1.206940
 C         3.342576        -0.085305        -1.112071
 C         2.726122        -1.514933        -1.468586
 C         2.103989        -1.427865        -0.075183
 O         1.647614        -2.461041         0.644824
 C         3.242188        -0.463729         0.357531
 O         2.321909         0.409110         1.034173
 H        -0.209593        -0.352603         1.246795
 H        -0.086964         1.271897         0.540533
 H        -0.667249        -0.007857        -0.367882
 H         1.393607         0.730437        -2.151101
 H         2.156600         1.872417        -0.971438
 H         4.292327         0.316232        -1.581396
 H         2.125467        -1.474880        -2.380902
 H         3.514318        -2.389313        -1.474054
 H         1.151902        -2.987104         0.042027
 H         4.225714        -0.858833         0.719657
