19
Iteration:  4768
 C        -0.068130         0.274431         0.456274
 C         1.403857         0.059314        -0.023136
 C         2.117237         0.867636        -1.156461
 C         3.382017        -0.120028        -1.088523
 C         2.802890        -1.538388        -1.543162
 C         2.094024        -1.419807        -0.103270
 O         1.439240        -2.494600         0.440969
 C         3.227845        -0.540405         0.400544
 O         2.444967         0.362218         1.096411
 H        -0.128703         0.035760         1.579006
 H        -0.350351         1.366634         0.298871
 H        -0.728946        -0.446019        -0.003504
 H         1.581532         0.840237        -2.085422
 H         2.464578         1.813848        -0.818085
 H         4.374294         0.122036        -1.603139
 H         2.274473        -1.408044        -2.599388
 H         3.501077        -2.386730        -1.547927
 H         1.109236        -2.168787         1.344850
 H         4.171925        -0.815843         0.863660
