19
Iteration:   962
 C        -0.009290         0.228007         0.417740
 C         1.395325         0.036458         0.047189
 C         1.996507         0.738745        -1.178428
 C         3.284670        -0.111506        -1.171565
 C         2.846395        -1.562623        -1.482113
 C         2.131674        -1.387881        -0.112709
 O         1.596224        -2.501169         0.506351
 C         3.278886        -0.454103         0.365219
 O         2.367184         0.448728         1.082957
 H        -0.247384        -0.263041         1.366847
 H        -0.241139         1.294303         0.669046
 H        -0.731024        -0.259697        -0.383249
 H         1.472534         0.673057        -2.123532
 H         2.072242         1.764182        -0.954656
 H         4.269499         0.274600        -1.577507
 H         2.215842        -1.513847        -2.339625
 H         3.618543        -2.307138        -1.371883
 H         0.876269        -2.127706         1.119214
 H         4.130411        -0.710689         0.878435
