19
Iteration:  2138
 C         0.010389         0.209818         0.574071
 C         1.336220         0.091982         0.009335
 C         2.087329         0.790196        -1.294180
 C         3.405658        -0.150290        -1.159171
 C         2.736825        -1.513594        -1.512940
 C         2.035315        -1.328448        -0.125897
 O         1.525352        -2.446033         0.558194
 C         3.243242        -0.573801         0.345724
 O         2.387139         0.414130         1.068718
 H        -0.155721        -0.385999         1.485665
 H        -0.084633         1.209406         0.936628
 H        -0.654676         0.157297        -0.318144
 H         1.547996         0.779590        -2.266598
 H         2.092246         1.810632        -0.993634
 H         4.168172         0.211194        -1.751239
 H         2.319434        -1.795700        -2.475808
 H         3.590051        -2.215522        -1.500755
 H         2.230585        -2.715984         1.199621
 H         4.015058        -1.018836         0.947048
