19
Iteration:  1522charge 0 multiplicity 1
 C         0.022293         0.294415         0.522202
 C         1.453874         0.060172         0.048926
 C         2.042046         0.736981        -1.159596
 C         3.270671        -0.040097        -1.235066
 C         2.684573        -1.546445        -1.599519
 C         2.110125        -1.427374        -0.120103
 O         1.422859        -2.472947         0.698319
 C         3.356246        -0.468117         0.283714
 O         2.509197         0.351845         1.081589
 H        -0.081480        -0.352358         1.449035
 H        -0.277743         1.396459         0.667504
 H        -0.575608        -0.018292        -0.300636
 H         1.324731         0.747034        -2.036075
 H         2.203161         1.852355        -0.867229
 H         4.238531         0.413816        -1.690479
 H         1.871227        -1.655100        -2.204975
 H         3.595131        -2.129221        -1.731237
 H         1.097418        -3.093023        -0.016432
 H         4.351484        -0.706744         0.713289
