19
Iteration:   184
 C        -0.125642         0.218255         0.407036
 C         1.391279        -0.006651        -0.005572
 C         1.960068         0.684168        -1.213346
 C         3.355633        -0.019848        -1.103522
 C         2.985178        -1.490335        -1.512049
 C         2.125382        -1.392350        -0.174252
 O         1.464154        -2.368105         0.591295
 C         3.261881        -0.538740         0.389859
 O         2.381861         0.383157         1.100238
 H        -0.324346        -0.403068         1.303816
 H        -0.207087         1.268905         0.684263
 H        -0.873892         0.037660        -0.468184
 H         1.497844         0.436147        -2.216550
 H         2.104185         1.775078        -1.158924
 H         4.132115         0.521749        -1.339627
 H         2.442891        -1.547973        -2.444096
 H         3.845438        -2.225043        -1.561042
 H         2.188328        -2.927587         1.067200
 H         4.140901        -0.794732         0.951534
