19
Iteration:  3413charge 0 multiplicity 1
 C        -0.088343         0.402907         0.401054
 C         1.324620         0.052350         0.007900
 C         2.050196         0.701546        -1.204656
 C         3.400917        -0.046199        -1.134670
 C         2.814879        -1.523317        -1.501105
 C         2.117134        -1.440024        -0.143745
 O         1.662997        -2.544997         0.534930
 C         3.270146        -0.482070         0.409211
 O         2.322615         0.350787         1.121906
 H        -0.251242         0.014650         1.472192
 H        -0.311208         1.490211         0.357674
 H        -0.697688        -0.047815        -0.351239
 H         1.468053         0.565598        -2.071817
 H         2.247869         1.720469        -0.934240
 H         4.306547         0.275789        -1.682578
 H         2.394970        -1.423713        -2.503253
 H         3.564390        -2.309832        -1.357672
 H         0.750103        -2.451601         0.854077
 H         4.024088        -0.881574         1.039838
