19
Iteration:  2352
 C        -0.011418         0.207059         0.417625
 C         1.469425         0.149419         0.001924
 C         1.998751         0.748659        -1.215873
 C         3.310837        -0.104422        -1.164302
 C         2.778553        -1.520707        -1.498253
 C         2.119768        -1.403311        -0.121772
 O         1.567158        -2.381830         0.631213
 C         3.228558        -0.591632         0.411899
 O         2.363159         0.402325         1.103991
 H        -0.378601        -0.546044         1.024978
 H        -0.150120         1.162307         0.901392
 H        -0.621402         0.367497        -0.474429
 H         1.390153         0.545740        -2.076610
 H         2.182603         1.833747        -1.141646
 H         4.121828         0.295589        -1.766991
 H         2.072795        -1.621745        -2.353673
 H         3.441882        -2.385830        -1.549974
 H         1.998841        -3.197621         0.224188
 H         4.256925        -0.763118         0.824469
