19
Iteration:  2786
 C        -0.121703         0.325087         0.330300
 C         1.333901         0.080143         0.002147
 C         2.051959         0.765385        -1.173883
 C         3.298295        -0.122217        -1.137160
 C         2.811923        -1.488771        -1.529852
 C         2.188535        -1.411451        -0.058147
 O         1.585089        -2.560887         0.563539
 C         3.276638        -0.510451         0.446216
 O         2.378630         0.423219         1.090603
 H        -0.550131        -0.386119         0.994756
 H        -0.175022         1.373185         0.697509
 H        -0.709327         0.030860        -0.529387
 H         1.621677         0.653158        -2.187834
 H         2.227048         1.843449        -1.288846
 H         4.001620         0.337376        -1.809447
 H         2.135689        -1.513026        -2.452115
 H         3.561252        -2.214748        -1.549932
 H         2.212349        -2.863579         1.304689
 H         4.114054        -0.878573         1.142610
