19
Iteration:  4378
 C        -0.082558         0.183523         0.304295
 C         1.384528         0.039352        -0.072778
 C         2.144340         0.834244        -1.161583
 C         3.386526        -0.110120        -1.051217
 C         2.757174        -1.578704        -1.501432
 C         2.159103        -1.399197        -0.123002
 O         1.519596        -2.409354         0.583068
 C         3.219053        -0.527773         0.441667
 O         2.321917         0.415287         1.041622
 H        -0.475566        -0.830393         0.749336
 H        -0.144183         0.865098         1.204304
 H        -0.617778         0.525319        -0.574990
 H         1.688337         0.847722        -2.127393
 H         2.341086         1.838909        -0.744574
 H         4.409929         0.138698        -1.492698
 H         2.101028        -1.602722        -2.360938
 H         3.666087        -2.241876        -1.835599
 H         1.801233        -2.297619         1.545862
 H         4.076227        -0.800254         0.946574
