19
Iteration:   827charge 0 multiplicity 1
 C        -0.067850         0.165766         0.415033
 C         1.339446         0.131977        -0.007176
 C         2.034455         0.760542        -1.264607
 C         3.324918        -0.066577        -1.133444
 C         2.772346        -1.537750        -1.428809
 C         2.152986        -1.355872        -0.149931
 O         1.522164        -2.507893         0.577436
 C         3.228485        -0.477379         0.423644
 O         2.468883         0.468652         1.118852
 H        -0.292974        -0.497065         1.317816
 H        -0.295296         1.221225         0.703101
 H        -0.692343        -0.017259        -0.661343
 H         1.407944         0.353638        -2.063788
 H         2.073785         1.867399        -1.239976
 H         4.235371         0.250267        -1.584476
 H         2.335300        -1.781950        -2.373298
 H         3.714970        -2.196588        -1.353377
 H         1.929655        -3.319574         0.285383
 H         4.241542        -0.857694         0.919811
