19
Iteration:   762charge 0 multiplicity 1
 C        -0.009614         0.157481         0.401766
 C         1.481833         0.083039         0.080837
 C         1.969078         0.740582        -1.189293
 C         3.328688        -0.043877        -1.234691
 C         2.842611        -1.506921        -1.547565
 C         2.074339        -1.391322        -0.160358
 O         1.500981        -2.428989         0.613103
 C         3.204950        -0.480322         0.419543
 O         2.405439         0.409653         1.137564
 H        -0.516003        -0.434082         1.194021
 H        -0.393541         1.125265         0.311694
 H        -0.438916         0.024887        -0.664911
 H         1.387566         0.517827        -2.064683
 H         2.106989         1.807064        -1.166970
 H         4.232928         0.373141        -1.557893
 H         2.429794        -1.698211        -2.483449
 H         3.553827        -2.378085        -1.434547
 H         2.255795        -2.856535         1.041846
 H         4.106641        -1.035469         0.918111
