19
Iteration:  4262charge 0 multiplicity 1
 C        -0.089943         0.050750         0.324060
 C         1.430603         0.005971        -0.028397
 C         2.185643         0.793155        -1.207657
 C         3.429215        -0.048998        -1.052297
 C         2.791733        -1.442395        -1.498113
 C         2.071893        -1.376174        -0.119015
 O         1.371227        -2.391544         0.611176
 C         3.260642        -0.503071         0.428476
 O         2.396466         0.451497         1.063937
 H        -0.272485        -0.060714         1.393369
 H        -0.618684         0.959292         0.028653
 H        -0.675641        -0.705234        -0.227130
 H         1.615498         0.725473        -2.224017
 H         2.462409         1.817007        -0.857547
 H         4.387259         0.328769        -1.500631
 H         2.364309        -1.581785        -2.564493
 H         3.481511        -2.275692        -1.398521
 H         1.789905        -3.270905         0.580891
 H         4.154011        -0.802613         1.146581
