19
Iteration:  2245
 C         0.058486         0.230813         0.429251
 C         1.441492         0.037033        -0.000449
 C         2.066719         0.836447        -1.204945
 C         3.271735        -0.133269        -1.170938
 C         2.723196        -1.491687        -1.530391
 C         2.084285        -1.419949        -0.107430
 O         1.558944        -2.449735         0.672297
 C         3.298144        -0.499081         0.350076
 O         2.363292         0.419922         1.061908
 H        -0.032248        -0.296164         1.419964
 H        -0.257262         1.265513         0.591206
 H        -0.756856        -0.320581        -0.226716
 H         1.479645         0.829022        -2.170359
 H         2.292965         1.806938        -0.747269
 H         4.155961         0.269547        -1.626727
 H         2.052934        -1.498635        -2.366487
 H         3.562669        -2.297682        -1.605660
 H         1.158705        -3.251897         0.170553
 H         4.195824        -0.913603         0.976379
