19
Iteration:  3298
 C        -0.061938         0.163068         0.393638
 C         1.407686         0.000885        -0.052175
 C         2.128457         0.763226        -1.112820
 C         3.379864        -0.096153        -1.165204
 C         2.828815        -1.569201        -1.551631
 C         2.076876        -1.331738        -0.098971
 O         1.514117        -2.400585         0.562126
 C         3.253843        -0.509981         0.396712
 O         2.300682         0.428753         1.067950
 H        -0.306024        -0.535047         1.177181
 H        -0.401500         1.201484         0.756768
 H        -0.762659         0.021449        -0.509927
 H         1.581605         0.792045        -2.085301
 H         2.333801         1.819111        -0.727034
 H         4.242957         0.365677        -1.542631
 H         2.334698        -1.450343        -2.495174
 H         3.474647        -2.414847        -1.345841
 H         2.069920        -2.662329         1.313911
 H         4.161558        -0.794441         0.997045
