19
Iteration:  2780
 C        -0.130217         0.327289         0.317311
 C         1.362872         0.087614         0.053071
 C         1.990435         0.755831        -1.150321
 C         3.292231        -0.081341        -1.169293
 C         2.835734        -1.507605        -1.450850
 C         2.174633        -1.455526        -0.163045
 O         1.587739        -2.520065         0.562605
 C         3.299423        -0.519811         0.439260
 O         2.376205         0.395431         1.075131
 H        -0.626088        -0.244511         1.181769
 H        -0.205717         1.359344         0.648987
 H        -0.634598         0.261406        -0.729673
 H         1.482633         0.607219        -2.152746
 H         2.204530         1.848660        -1.141859
 H         4.159008         0.190655        -1.876041
 H         2.188017        -1.545578        -2.293926
 H         3.743388        -2.230192        -1.387360
 H         2.161273        -2.888761         1.248175
 H         4.135220        -0.810494         1.126652
