19
Iteration:  1773charge 0 multiplicity 1
 C         0.016752         0.278611         0.454155
 C         1.425733         0.090593         0.085822
 C         2.003812         0.845040        -1.199217
 C         3.260164        -0.117455        -1.209883
 C         2.566981        -1.471913        -1.520260
 C         2.062914        -1.384625        -0.086036
 O         1.542718        -2.487266         0.627470
 C         3.324177        -0.551539         0.310674
 O         2.562863         0.358538         1.087116
 H        -0.399662        -0.564325         0.975057
 H         0.074358         1.276966         0.903758
 H        -0.635892         0.200053        -0.376417
 H         1.447917         0.696506        -2.067991
 H         2.227834         1.851595        -0.784032
 H         4.179893         0.161741        -1.845059
 H         1.733323        -1.717260        -2.273758
 H         3.503017        -2.227842        -1.754403
 H         2.071847        -3.141686         0.178293
 H         4.117904        -0.903261         0.935769
