19
Iteration:  4937
 C        -0.012446         0.344589         0.468619
 C         1.386473         0.033490         0.049751
 C         2.152875         0.750178        -1.130351
 C         3.349079        -0.163334        -1.161780
 C         2.728850        -1.491749        -1.522643
 C         2.063650        -1.361075        -0.142554
 O         1.448005        -2.453588         0.414871
 C         3.237986        -0.531365         0.394695
 O         2.434684         0.385589         1.173038
 H        -0.174672        -0.036627         1.477063
 H        -0.058511         1.462359         0.508273
 H        -0.692676        -0.047382        -0.345749
 H         1.480992         0.801489        -1.912395
 H         2.326205         1.813415        -0.996973
 H         4.216089         0.175595        -1.625847
 H         1.956721        -1.770042        -2.309551
 H         3.502605        -2.311313        -1.635066
 H         2.212342        -3.129546         0.475482
 H         4.158931        -1.002738         0.831111
