19
Iteration:  2828
 C        -0.085262         0.146200         0.369697
 C         1.393696         0.085502        -0.063543
 C         2.111068         0.766329        -1.175354
 C         3.312385        -0.094682        -1.201212
 C         2.782123        -1.539289        -1.521433
 C         2.124675        -1.355496        -0.102983
 O         1.566646        -2.429914         0.566197
 C         3.280124        -0.521050         0.465461
 O         2.369980         0.407540         1.080812
 H        -0.201964        -0.442315         1.266071
 H        -0.441929         1.190220         0.748319
 H        -0.751670        -0.268564        -0.352253
 H         1.576039         0.902781        -2.125760
 H         2.240339         1.841974        -0.918233
 H         4.252846         0.288733        -1.522146
 H         2.088289        -1.647840        -2.396150
 H         3.620679        -2.197455        -1.434477
 H         1.366338        -2.500109         1.508905
 H         4.175804        -0.825646         0.959651
