19
Iteration:  3325
 C        -0.047137         0.102565         0.353303
 C         1.496664         0.083347        -0.040683
 C         2.095214         0.794820        -1.252574
 C         3.305297        -0.048445        -1.189455
 C         2.800467        -1.485890        -1.470953
 C         2.157437        -1.396914        -0.051336
 O         1.440561        -2.440016         0.525907
 C         3.257992        -0.546546         0.474918
 O         2.385620         0.393714         1.116498
 H        -0.308186        -0.781937         1.014644
 H        -0.395602         0.948169         0.887762
 H        -0.689777         0.108809        -0.493707
 H         1.429626         0.637934        -2.099306
 H         2.171769         1.855382        -1.241248
 H         4.299332         0.373046        -1.581754
 H         2.171042        -1.463940        -2.382075
 H         3.601456        -2.232723        -1.425028
 H         1.453684        -2.268940         1.510112
 H         4.191407        -0.637965         0.990984
