19
Iteration:  1490
 C         0.009943         0.385755         0.508485
 C         1.409117         0.113969         0.027477
 C         2.005319         0.765496        -1.163569
 C         3.317057        -0.132580        -1.209218
 C         2.656316        -1.558025        -1.602690
 C         2.020753        -1.346430        -0.183127
 O         1.732496        -2.482148         0.615125
 C         3.213496        -0.576622         0.355347
 O         2.473623         0.361697         1.140802
 H        -0.070577        -0.196360         1.462447
 H        -0.303613         1.464036         0.584065
 H        -0.696734        -0.116015        -0.117251
 H         1.295686         0.529370        -2.003852
 H         2.242245         1.859720        -0.966445
 H         4.362816         0.274390        -1.587495
 H         1.912170        -1.707340        -2.406045
 H         3.489902        -2.282996        -1.747609
 H         0.814815        -2.675296         0.486829
 H         4.017930        -1.205739         0.752361
