19
Iteration:  2589charge 0 multiplicity 1
 C        -0.071085         0.305794         0.316250
 C         1.401404         0.072145         0.013653
 C         1.975490         0.717598        -1.228319
 C         3.290617        -0.032656        -1.088953
 C         2.802232        -1.583946        -1.463609
 C         2.149242        -1.443445        -0.074516
 O         1.599346        -2.569168         0.511980
 C         3.275264        -0.461489         0.432963
 O         2.380107         0.461439         1.088410
 H        -0.440859        -0.378858         1.112759
 H        -0.191060         1.355490         0.787735
 H        -0.655385         0.387837        -0.549925
 H         1.500764         0.530765        -2.197317
 H         2.232768         1.808271        -1.151959
 H         4.139830         0.363728        -1.673107
 H         2.175163        -1.652839        -2.422280
 H         3.593739        -2.331029        -1.472126
 H         1.865547        -2.674725         1.413490
 H         4.164184        -0.742557         0.996106
