19
Iteration:  3683charge 0 multiplicity 1
 C        -0.144686         0.254203         0.276902
 C         1.419403         0.094608        -0.015193
 C         2.110738         0.726750        -1.138364
 C         3.340407        -0.105745        -1.097495
 C         2.822881        -1.536867        -1.461082
 C         2.164386        -1.410659        -0.087898
 O         1.600261        -2.492207         0.493620
 C         3.267342        -0.502070         0.435880
 O         2.288169         0.463363         1.094969
 H        -0.466759        -0.410336         1.160977
 H        -0.419883         1.241731         0.469189
 H        -0.657214        -0.043233        -0.624276
 H         1.639488         0.801451        -2.146670
 H         2.192319         1.784754        -0.966940
 H         4.323338         0.081049        -1.686151
 H         2.070051        -1.596941        -2.355925
 H         3.415031        -2.420045        -1.431499
 H         1.757390        -2.618460         1.472740
 H         4.101297        -0.765196         1.076355
