19
Iteration:  2237charge 0 multiplicity 1
 C         0.051339         0.224402         0.475518
 C         1.393314         0.086569        -0.052303
 C         2.090695         0.814166        -1.195587
 C         3.335191        -0.130706        -1.210557
 C         2.686401        -1.457855        -1.523982
 C         2.112925        -1.384528        -0.129581
 O         1.556375        -2.484410         0.721610
 C         3.279047        -0.510904         0.352532
 O         2.344509         0.396856         1.070758
 H        -0.012115        -0.438583         1.402052
 H        -0.250439         1.252329         0.609677
 H        -0.601941        -0.264208        -0.303195
 H         1.489969         0.949813        -2.114467
 H         2.281719         1.813449        -0.921068
 H         4.186246         0.133037        -1.712368
 H         2.144297        -1.534928        -2.439521
 H         3.408169        -2.257490        -1.322322
 H         1.407690        -3.161098        -0.022161
 H         4.079843        -0.946574         0.900513
