19
Iteration:  3070charge 0 multiplicity 1
 C        -0.154089         0.374317         0.385841
 C         1.394422         0.136479         0.037224
 C         2.037703         0.733249        -1.188406
 C         3.322388        -0.121817        -1.196519
 C         2.927136        -1.507937        -1.531057
 C         2.147153        -1.469963        -0.081271
 O         1.616992        -2.587259         0.573939
 C         3.288346        -0.488253         0.423730
 O         2.348387         0.413091         1.134276
 H        -0.532035        -0.140402         1.194482
 H        -0.438808         1.415417         0.317508
 H        -0.785935        -0.157272        -0.362131
 H         1.323294         0.738271        -2.033544
 H         2.262262         1.781573        -1.139292
 H         4.144918         0.454123        -1.541616
 H         2.332143        -1.905774        -2.425809
 H         3.715279        -2.200259        -1.460461
 H         0.604521        -2.465994         0.399724
 H         4.315470        -0.776985         0.873246
