19
Iteration:  4332
 C        -0.057483         0.406197         0.307035
 C         1.342653         0.099657         0.049785
 C         1.999445         0.706650        -1.175423
 C         3.310948        -0.078764        -1.070899
 C         2.943385        -1.566426        -1.489258
 C         2.255037        -1.496637        -0.158599
 O         1.480940        -2.521101         0.509375
 C         3.226969        -0.496957         0.516482
 O         2.326173         0.447677         1.077508
 H        -0.565204        -0.262537         1.069694
 H        -0.049780         1.444922         0.794444
 H        -0.595524         0.539139        -0.669387
 H         1.507590         0.300606        -2.103207
 H         2.034415         1.843460        -1.163763
 H         4.097808         0.573811        -1.348962
 H         2.434523        -1.780113        -2.446766
 H         3.716990        -2.468985        -1.516654
 H         2.101214        -3.242576         0.592479
 H         4.081367        -0.822824         0.996061
