19
Iteration:  1897
 C         0.055123         0.238255         0.469547
 C         1.498901         0.040397         0.084577
 C         1.987891         0.745955        -1.147122
 C         3.230998        -0.027286        -1.236157
 C         2.669976        -1.514018        -1.628243
 C         2.142451        -1.411932        -0.118173
 O         1.470191        -2.423640         0.588082
 C         3.266755        -0.527033         0.313734
 O         2.481957         0.336789         1.119629
 H        -0.132070        -0.111452         1.452134
 H        -0.150319         1.265224         0.430811
 H        -0.652595        -0.060986        -0.359132
 H         1.373855         0.593821        -2.065289
 H         2.216938         1.725454        -0.842090
 H         4.219717         0.356595        -1.483189
 H         2.050994        -1.758954        -2.541681
 H         3.611760        -2.106354        -1.617682
 H         1.600735        -2.481433         1.513041
 H         4.334358        -0.733762         0.670361
