19
Iteration:  1500charge 0 multiplicity 1
 C         0.019751         0.304082         0.495675
 C         1.418095         0.073849         0.082999
 C         1.955884         0.757869        -1.143415
 C         3.304404        -0.161959        -1.200666
 C         2.693829        -1.476966        -1.579926
 C         2.061002        -1.356741        -0.171846
 O         1.667248        -2.401918         0.629863
 C         3.236527        -0.629778         0.297085
 O         2.492586         0.351908         1.095603
 H        -0.117050         0.000226         1.593385
 H        -0.035008         1.459461         0.502822
 H        -0.688935         0.025141        -0.238735
 H         1.430235         0.705903        -2.135931
 H         1.899869         1.880165        -0.851414
 H         4.227184         0.072434        -1.845319
 H         2.052108        -1.566372        -2.395245
 H         3.440883        -2.280604        -1.424204
 H         0.879369        -2.769102         0.225040
 H         4.025648        -1.018957         0.947663
