19
Iteration:  3557charge 0 multiplicity 1
 C        -0.019864         0.308079         0.320053
 C         1.403106         0.038151         0.059357
 C         1.978458         0.695533        -1.219910
 C         3.426667        -0.067754        -1.154172
 C         2.777787        -1.503069        -1.443970
 C         2.088824        -1.370562        -0.056569
 O         1.576145        -2.504739         0.551244
 C         3.194847        -0.491387         0.482851
 O         2.336457         0.389749         1.076666
 H        -0.457343        -0.412486         1.059782
 H        -0.096120         1.397934         0.767567
 H        -0.446274         0.429309        -0.744190
 H         1.480682         0.465576        -2.163462
 H         2.227644         1.789878        -1.017861
 H         4.327286         0.279369        -1.629729
 H         2.312803        -1.593569        -2.414284
 H         3.704286        -2.195159        -1.343630
 H         1.866927        -3.320365         0.005047
 H         4.208253        -0.476108         0.931996
