19
Iteration:  1560charge 0 multiplicity 1
 C         0.058494         0.182857         0.581156
 C         1.428949         0.111706         0.102249
 C         2.054713         0.708696        -1.172851
 C         3.336924        -0.138226        -1.218685
 C         2.595633        -1.503246        -1.497394
 C         2.063480        -1.301440        -0.116701
 O         1.451928        -2.389977         0.510653
 C         3.265392        -0.522647         0.313242
 O         2.542955         0.434254         1.023641
 H        -0.087511        -0.668443         1.206442
 H        -0.149539         1.070066         1.098057
 H        -0.768281         0.024263        -0.182497
 H         1.662803         0.567673        -2.198295
 H         2.180098         1.660855        -0.764154
 H         4.191891         0.223046        -1.757502
 H         1.816216        -1.914780        -2.362087
 H         3.289690        -2.371051        -1.440589
 H         2.143786        -3.014243         0.383635
 H         4.093930        -0.891589         0.913994
