19
Iteration:  3635
 C        -0.111978         0.178053         0.298069
 C         1.404840         0.006141         0.042156
 C         2.028777         0.762892        -1.141605
 C         3.374858        -0.090295        -1.082396
 C         2.861058        -1.531370        -1.544829
 C         2.170901        -1.355346        -0.112929
 O         1.549093        -2.394135         0.598270
 C         3.296229        -0.487897         0.426629
 O         2.343514         0.383759         1.079190
 H        -0.336951        -0.232955         1.289639
 H        -0.478545         1.297827         0.193450
 H        -0.637995        -0.482592        -0.534030
 H         1.522274         0.709402        -2.049711
 H         2.359017         1.775094        -1.256471
 H         4.384262         0.197798        -1.372499
 H         2.240407        -1.522010        -2.419409
 H         3.604240        -2.415637        -1.610469
 H         0.543858        -2.277040         0.625336
 H         4.161311        -0.834966         1.020805
