19
Iteration:  4734charge 0 multiplicity 1
 C         0.061707         0.062263         0.347979
 C         1.450221         0.122704        -0.013725
 C         2.052184         0.813223        -1.165625
 C         3.384517        -0.168070        -1.114727
 C         2.707135        -1.499581        -1.463514
 C         2.094414        -1.360151        -0.131630
 O         1.311818        -2.328805         0.416926
 C         3.269385        -0.549166         0.451767
 O         2.503167         0.406946         1.192492
 H        -0.161541        -0.205130         1.426684
 H        -0.440906         1.061190         0.129127
 H        -0.488020        -0.636368        -0.263060
 H         1.449192         0.718938        -2.076664
 H         2.430759         1.794695        -1.031368
 H         4.394721         0.173076        -1.484358
 H         2.000355        -1.472743        -2.420984
 H         3.433537        -2.282647        -1.617513
 H         1.725150        -2.871242         1.175018
 H         4.311787        -0.743555         0.826783
