19
Iteration:  2014charge 0 multiplicity 1
 C         0.028375         0.229430         0.623564
 C         1.378720         0.147105         0.036037
 C         2.023389         0.757095        -1.294095
 C         3.304674        -0.107018        -1.199011
 C         2.798435        -1.510653        -1.500937
 C         2.081525        -1.400915        -0.186597
 O         1.598345        -2.475805         0.601532
 C         3.235485        -0.554583         0.369406
 O         2.401226         0.385529         1.039278
 H        -0.159829        -0.368179         1.491260
 H        -0.074577         1.334021         0.920129
 H        -0.728780         0.333906        -0.201051
 H         1.593366         0.535297        -2.239949
 H         2.288461         1.774551        -1.025508
 H         4.266775         0.284422        -1.616570
 H         2.163513        -1.696217        -2.354319
 H         3.660121        -2.207501        -1.572904
 H         0.621650        -2.539546         0.480007
 H         4.107662        -0.900384         1.024944
