19
Iteration:  1636charge 0 multiplicity 1
 C        -0.036263         0.427473         0.569340
 C         1.397346         0.126082         0.088469
 C         2.084123         0.800505        -1.133663
 C         3.254141        -0.153642        -1.252562
 C         2.610083        -1.527617        -1.621046
 C         2.092105        -1.403543        -0.074836
 O         1.681101        -2.577891         0.510126
 C         3.277574        -0.598475         0.284080
 O         2.499733         0.399344         1.108874
 H        -0.341477        -0.268757         1.318935
 H        -0.401067         1.408908         0.668824
 H        -0.644694         0.103517        -0.338485
 H         1.288026         0.567765        -1.876941
 H         2.318682         1.797310        -0.878054
 H         4.077814         0.167337        -1.824380
 H         1.922712        -1.447185        -2.498414
 H         3.346290        -2.272857        -1.648392
 H         1.224497        -2.362555         1.386349
 H         4.113875        -1.056545         0.806777
