19
Iteration:  2128
 C        -0.016407         0.242471         0.543346
 C         1.428790         0.053460        -0.057423
 C         2.114343         0.848085        -1.272976
 C         3.321081        -0.121253        -1.206890
 C         2.756546        -1.474562        -1.493742
 C         2.019165        -1.385903        -0.111205
 O         1.531644        -2.459443         0.596291
 C         3.218261        -0.546416         0.366702
 O         2.398944         0.369084         1.043118
 H        -0.033843        -0.509686         1.383554
 H        -0.126052         1.248069         0.835451
 H        -0.898296        -0.128931        -0.027838
 H         1.686040         0.635567        -2.268150
 H         2.304660         1.835953        -0.917926
 H         4.308193         0.104810        -1.427724
 H         1.984674        -1.462845        -2.369060
 H         3.456027        -2.327464        -1.427845
 H         2.133409        -2.751146         1.272593
 H         4.123724        -0.753020         0.835121
