19
Iteration:   288charge 0 multiplicity 1
 C        -0.099392         0.263660         0.397915
 C         1.412724        -0.015114        -0.002867
 C         1.962927         0.825538        -1.134231
 C         3.353645        -0.036918        -1.185957
 C         2.872686        -1.601126        -1.537956
 C         2.244661        -1.401950        -0.136366
 O         1.649289        -2.397659         0.637956
 C         3.272341        -0.471302         0.351628
 O         2.264267         0.281085         1.087771
 H        -0.458198        -0.220977         1.329069
 H        -0.297628         1.359800         0.540297
 H        -0.843969        -0.107200        -0.334040
 H         1.397527         0.934675        -2.021255
 H         2.360270         1.740865        -0.779398
 H         4.243067         0.517770        -1.844910
 H         2.180104        -1.869072        -2.437685
 H         3.633503        -2.370172        -1.349631
 H         0.693100        -2.390667         0.652755
 H         4.182272        -0.654934         0.949282
