19
Iteration:  2106charge 0 multiplicity 1
 C         0.015561         0.243168         0.457486
 C         1.451835         0.097614         0.022354
 C         2.047441         0.814259        -1.145043
 C         3.337320        -0.139292        -1.195862
 C         2.678449        -1.560246        -1.622760
 C         2.139302        -1.439487        -0.106715
 O         1.498752        -2.454451         0.594181
 C         3.308955        -0.510707         0.370723
 O         2.375259         0.429106         1.081694
 H        -0.239691        -0.328617         1.405166
 H        -0.170066         1.289042         0.405269
 H        -0.599619        -0.255936        -0.349141
 H         1.546096         0.675581        -2.134129
 H         2.214161         1.748854        -0.660348
 H         4.111831         0.255640        -1.788131
 H         1.774020        -1.569319        -2.399288
 H         3.553441        -2.234155        -1.813764
 H         1.891939        -2.660014         1.494414
 H         4.120954        -0.744166         1.001879
