19
Iteration:  1170
 C         0.061126         0.294813         0.428459
 C         1.425675         0.056732         0.069332
 C         2.014630         0.785632        -1.127149
 C         3.239925        -0.178480        -1.150058
 C         2.666748        -1.576214        -1.545211
 C         2.098206        -1.397301        -0.159126
 O         1.606876        -2.456708         0.539277
 C         3.236451        -0.478843         0.386064
 O         2.377553         0.395779         1.030387
 H        -0.093271        -0.251583         1.355992
 H         0.056963         1.356823         0.703340
 H        -0.636735         0.051282        -0.328314
 H         1.563405         0.803245        -2.128722
 H         2.249652         1.859842        -0.902816
 H         4.056320         0.293755        -1.648725
 H         2.047981        -1.581966        -2.427131
 H         3.535505        -2.235834        -1.196807
 H         2.324535        -2.884269         1.025251
 H         4.159435        -0.681820         0.940497
