19
Iteration:  1293charge 0 multiplicity 1
 C         0.023724         0.383706         0.518258
 C         1.375601         0.095143         0.007679
 C         2.016405         0.780933        -1.200516
 C         3.356351        -0.149506        -1.217132
 C         2.699656        -1.519432        -1.559403
 C         2.106168        -1.424198        -0.119986
 O         1.617638        -2.473078         0.634729
 C         3.277564        -0.504241         0.374383
 O         2.354483         0.327357         1.082443
 H         0.070358         0.020909         1.541542
 H        -0.149260         1.391495         0.826851
 H        -0.712263        -0.045854        -0.013425
 H         1.531855         0.705515        -2.146255
 H         2.093435         1.877833        -1.112696
 H         4.238177         0.144232        -1.773364
 H         1.998306        -1.534916        -2.468475
 H         3.370536        -2.448503        -1.605201
 H         1.538061        -3.171777        -0.073029
 H         4.136923        -0.723210         1.055192
