19
Iteration:   785charge 0 multiplicity 1
 C        -0.075467         0.228549         0.437491
 C         1.447837        -0.046962        -0.062134
 C         2.032966         0.768916        -1.205984
 C         3.305001        -0.065714        -1.131220
 C         2.810160        -1.471481        -1.485413
 C         2.167760        -1.464363        -0.091320
 O         1.486244        -2.387369         0.571688
 C         3.296748        -0.432962         0.381112
 O         2.346124         0.371236         1.067633
 H         0.013130        -0.401596         1.343218
 H        -0.376678         1.239969         0.643591
 H        -1.040879         0.041089        -0.213203
 H         1.643270         0.583577        -2.199969
 H         2.091068         1.816046        -1.041429
 H         4.250331         0.276125        -1.578929
 H         2.222345        -1.662058        -2.345573
 H         3.594372        -2.261419        -1.641620
 H         2.136537        -2.990503         1.066910
 H         4.257399        -0.737750         0.966212
