19
Iteration:   400charge 0 multiplicity 1
 C        -0.045602         0.199595         0.432910
 C         1.402302         0.014496         0.032179
 C         1.981084         0.702466        -1.264993
 C         3.362996        -0.079170        -1.110257
 C         2.858881        -1.421455        -1.619447
 C         2.124393        -1.397793        -0.144432
 O         1.551811        -2.403594         0.573582
 C         3.241827        -0.528026         0.442842
 O         2.358668         0.413117         1.114301
 H        -0.302153        -0.409873         1.282635
 H        -0.296639         1.190520         0.696610
 H        -0.727833        -0.223628        -0.402542
 H         1.548780         0.569057        -2.274403
 H         2.145955         1.708363        -0.993646
 H         4.314751         0.381394        -1.472066
 H         2.012705        -1.607677        -2.291875
 H         3.387349        -2.418616        -1.792984
 H         2.195868        -2.379946         1.322667
 H         3.976769        -1.005086         1.032554
