19
Iteration:   890
 C        -0.064932         0.162221         0.397929
 C         1.367471         0.058514        -0.075721
 C         2.088437         0.790303        -1.248512
 C         3.414503        -0.100029        -1.127163
 C         2.764331        -1.439680        -1.461293
 C         2.080216        -1.379535        -0.053567
 O         1.570139        -2.430572         0.648340
 C         3.234036        -0.499580         0.335470
 O         2.334173         0.366722         1.061806
 H        -0.267235        -0.474154         1.263334
 H        -0.272643         1.186232         0.732896
 H        -0.708973        -0.162291        -0.290897
 H         1.454680         0.871228        -2.169349
 H         2.437987         1.832722        -0.949156
 H         4.244516         0.231329        -1.671411
 H         2.034882        -1.526613        -2.290248
 H         3.554893        -2.188916        -1.345325
 H         2.244636        -3.162331         0.555183
 H         4.129022        -0.854660         0.938304
