19
Iteration:  4681charge 0 multiplicity 1
 C         0.030476         0.364506         0.353498
 C         1.381510         0.044470        -0.043517
 C         2.102282         0.858113        -1.195457
 C         3.355910        -0.047641        -1.136533
 C         2.716300        -1.642321        -1.516761
 C         2.152718        -1.416948        -0.118416
 O         1.554737        -2.431812         0.581667
 C         3.240398        -0.531268         0.476069
 O         2.301740         0.314352         1.158461
 H        -0.371817        -0.343247         1.140669
 H        -0.018159         1.413576         0.810989
 H        -0.678512         0.439154        -0.440629
 H         1.665893         0.826866        -2.143739
 H         2.309664         1.856721        -1.096284
 H         4.348221         0.316078        -1.585494
 H         2.074788        -1.742521        -2.483127
 H         3.593442        -2.275383        -1.674957
 H         1.485172        -3.347040         0.132783
 H         4.064015        -0.977967         1.020653
