19
Iteration:  4308charge 0 multiplicity 1
 C        -0.012562         0.325249         0.351452
 C         1.353056        -0.051156         0.019652
 C         2.083546         0.695224        -1.228489
 C         3.352534        -0.089913        -1.112133
 C         2.921247        -1.460506        -1.348111
 C         2.046561        -1.409081        -0.088338
 O         1.454269        -2.528299         0.495902
 C         3.303336        -0.390876         0.444126
 O         2.315151         0.405399         1.092523
 H        -0.368786         0.095482         1.329299
 H        -0.016609         1.449664         0.300898
 H        -0.745884         0.100371        -0.496476
 H         1.655583         0.410395        -2.293249
 H         2.107984         1.796034        -0.979680
 H         4.116941         0.376322        -1.651904
 H         2.385274        -1.679349        -2.352881
 H         3.703183        -2.279590        -1.417508
 H         1.986051        -3.220761        -0.049287
 H         4.219093        -0.677171         1.086775
