19
Iteration:  1755
 C         0.029299         0.240935         0.528025
 C         1.458934         0.076825         0.090330
 C         2.114377         0.811488        -1.149148
 C         3.298957        -0.146937        -1.261229
 C         2.528489        -1.514584        -1.542143
 C         2.130225        -1.427623        -0.085289
 O         1.520840        -2.480611         0.543474
 C         3.307058        -0.532859         0.351830
 O         2.447108         0.460665         1.056235
 H        -0.164696        -0.542335         1.282690
 H        -0.209938         1.211202         0.995907
 H        -0.677131         0.255564        -0.422895
 H         1.325231         0.759415        -2.000312
 H         2.339782         1.812136        -0.844919
 H         4.082341         0.269608        -1.812063
 H         1.906920        -1.284669        -2.344720
 H         3.122464        -2.356917        -1.671275
 H         1.989836        -3.266789         0.773823
 H         4.326122        -0.789074         0.601143
