19
Iteration:  4139
 C        -0.027189         0.233617         0.288464
 C         1.392370        -0.016650         0.008740
 C         1.967892         0.760424        -1.185868
 C         3.332957        -0.139114        -1.084360
 C         2.933296        -1.559753        -1.391838
 C         2.129500        -1.385352        -0.127794
 O         1.505607        -2.394376         0.542659
 C         3.243699        -0.460357         0.474707
 O         2.355843         0.468494         1.063146
 H        -0.728317        -0.506123         0.797522
 H         0.068895         1.070182         0.972158
 H        -0.543246         0.529015        -0.584716
 H         1.437875         0.399709        -2.141428
 H         2.119298         1.862596        -1.148576
 H         4.286911         0.364881        -1.476451
 H         2.489681        -1.717409        -2.453772
 H         3.791110        -2.221020        -1.213339
 H         1.531432        -3.302098         0.123176
 H         4.024353        -1.017780         0.994136
