19
Iteration:   202
 C         0.024602         0.200887         0.444483
 C         1.382056         0.030945        -0.034820
 C         2.033994         0.843090        -1.196348
 C         3.292973        -0.086399        -1.157955
 C         2.877859        -1.546757        -1.475185
 C         2.247150        -1.461026        -0.109853
 O         1.480122        -2.465042         0.494737
 C         3.198717        -0.434165         0.447558
 O         2.274475         0.396540         1.059008
 H         0.008887        -0.406892         1.328078
 H        -0.180795         1.256707         0.636320
 H        -0.543302        -0.136064        -0.435737
 H         1.391473         0.736113        -2.152908
 H         2.115814         1.909819        -0.909192
 H         4.267742         0.269762        -1.737953
 H         2.368884        -1.835462        -2.399056
 H         3.812967        -2.116225        -1.292389
 H         1.757075        -2.676677         1.454399
 H         4.164567        -0.630863         0.968182
