19
Iteration:  2434charge 0 multiplicity 1
 C        -0.054949         0.281532         0.435378
 C         1.414651         0.098486         0.020299
 C         2.088484         0.682429        -1.218121
 C         3.358263        -0.106904        -1.086979
 C         2.796359        -1.537214        -1.517280
 C         2.086146        -1.403363        -0.173176
 O         1.605341        -2.451552         0.552038
 C         3.206083        -0.449686         0.345521
 O         2.339852         0.346584         1.047658
 H        -0.197534        -0.125104         1.503424
 H        -0.357300         1.342440         0.614786
 H        -0.720194        -0.356064        -0.075378
 H         1.470234         0.641104        -2.142511
 H         2.125678         1.784683        -1.005928
 H         4.366724         0.264707        -1.528553
 H         2.131456        -1.516774        -2.393122
 H         3.636163        -2.255404        -1.426383
 H         1.627823        -2.288927         1.535568
 H         3.989019        -0.764488         0.985904
