19
Iteration:   312charge 0 multiplicity 1
 C        -0.049151         0.173056         0.429909
 C         1.412227         0.051316        -0.007664
 C         2.046698         0.783554        -1.235349
 C         3.336053        -0.103061        -1.110035
 C         2.844012        -1.436650        -1.519017
 C         2.075710        -1.385950        -0.155858
 O         1.680378        -2.496057         0.631460
 C         3.145428        -0.504130         0.399607
 O         2.358489         0.436223         1.066598
 H        -0.254310        -0.421754         1.291881
 H        -0.192500         1.189195         0.737253
 H        -0.871121        -0.115017        -0.313105
 H         1.492342         0.579159        -2.193266
 H         2.282825         1.832041        -1.116585
 H         4.338300         0.219398        -1.551793
 H         2.264903        -1.565149        -2.420539
 H         3.693109        -2.177878        -1.414936
 H         0.815900        -2.874079         0.619597
 H         4.017352        -0.809345         0.916196
