19
Iteration:   747
 C        -0.055951         0.169883         0.267301
 C         1.380052         0.049992         0.081405
 C         2.037335         0.738473        -1.147012
 C         3.287437        -0.099793        -1.141901
 C         2.772608        -1.516496        -1.479794
 C         2.085075        -1.346456        -0.122330
 O         1.546138        -2.420004         0.564560
 C         3.291890        -0.503463         0.334451
 O         2.435768         0.441147         1.145647
 H        -0.194880        -0.484931         1.143173
 H        -0.347745         1.222648         0.671815
 H        -0.679679        -0.324551        -0.549630
 H         1.363122         0.666479        -2.086260
 H         2.101531         1.870977        -0.963941
 H         4.210031         0.240133        -1.695039
 H         2.168419        -1.703759        -2.440999
 H         3.622432        -2.149926        -1.352187
 H         2.223555        -2.940660         0.936474
 H         4.173514        -0.800493         0.811338
