19
Iteration:  3736
 C        -0.120484         0.258882         0.355968
 C         1.387832         0.049866        -0.022802
 C         2.042780         0.716661        -1.189406
 C         3.361944        -0.101420        -1.133494
 C         2.978285        -1.554686        -1.475397
 C         2.170389        -1.424512        -0.133747
 O         1.470798        -2.387835         0.555855
 C         3.263293        -0.471153         0.467183
 O         2.300894         0.380549         1.079399
 H        -0.744524        -0.409581         1.035636
 H        -0.006083         1.276328         0.767990
 H        -0.793983         0.321189        -0.517991
 H         1.503418         0.610254        -2.109367
 H         2.135703         1.752484        -0.966182
 H         4.222266         0.446216        -1.652432
 H         2.303553        -1.754546        -2.373455
 H         3.806080        -2.260140        -1.423593
 H         2.084247        -3.125667         0.819501
 H         4.063273        -0.588884         1.176551
