19
Iteration:  3321charge 0 multiplicity 1
 C        -0.052631         0.086028         0.358309
 C         1.490357         0.088053        -0.006079
 C         2.100478         0.807258        -1.277346
 C         3.349951        -0.079140        -1.165693
 C         2.794390        -1.484789        -1.476966
 C         2.153617        -1.425612        -0.094389
 O         1.427024        -2.438903         0.540713
 C         3.249311        -0.492327         0.435319
 O         2.378808         0.386868         1.126564
 H        -0.320128        -0.732187         1.087386
 H        -0.429782         0.995961         0.914863
 H        -0.748104         0.150337        -0.545829
 H         1.461828         0.563550        -2.154583
 H         2.213936         1.894965        -1.080346
 H         4.254454         0.330605        -1.552513
 H         2.119651        -1.514526        -2.362121
 H         3.630090        -2.139699        -1.422486
 H         1.613058        -2.257118         1.462434
 H         4.219918        -0.621750         1.035350
