19
Iteration:  1924charge 0 multiplicity 1
 C        -0.105463         0.226267         0.465373
 C         1.436485         0.091420         0.044471
 C         2.030169         0.809130        -1.132647
 C         3.360022        -0.145186        -1.234741
 C         2.626282        -1.464304        -1.573073
 C         2.044994        -1.322762        -0.117267
 O         1.599526        -2.413825         0.633356
 C         3.274508        -0.598643         0.325353
 O         2.473670         0.332777         1.050260
 H        -0.156939        -0.302962         1.463499
 H        -0.341764         1.355089         0.743471
 H        -0.832010         0.042573        -0.285003
 H         1.511269         0.709323        -2.107042
 H         2.407370         1.886325        -0.830844
 H         4.335531         0.148153        -1.648762
 H         2.021079        -1.680795        -2.416685
 H         3.400460        -2.212373        -1.513141
 H         2.260341        -3.037460         0.874977
 H         4.152237        -0.926500         0.790919
