19
Iteration:  1052charge 0 multiplicity 1
 C        -0.000531         0.233732         0.345098
 C         1.441903         0.032503         0.048341
 C         2.036385         0.723339        -1.153509
 C         3.247023        -0.054257        -1.162256
 C         2.748884        -1.539022        -1.495362
 C         2.070940        -1.405285        -0.074686
 O         1.525470        -2.431117         0.535038
 C         3.280670        -0.454720         0.334120
 O         2.444535         0.392797         1.102451
 H        -0.191232        -0.633623         1.143380
 H        -0.297307         1.298996         0.767095
 H        -0.721261        -0.016996        -0.473725
 H         1.570228         0.579066        -2.096217
 H         1.986980         1.818453        -1.022311
 H         4.110132         0.292996        -1.666320
 H         2.069776        -1.541343        -2.367574
 H         3.522733        -2.182660        -1.226938
 H         2.296928        -2.704744         1.132835
 H         4.162526        -0.896454         0.847449
