19
Iteration:  2787
 C        -0.115453         0.327555         0.334903
 C         1.333755         0.076586        -0.005218
 C         2.063168         0.766599        -1.179282
 C         3.299517        -0.127543        -1.131470
 C         2.803323        -1.484805        -1.541352
 C         2.185890        -1.405620        -0.041484
 O         1.585740        -2.566112         0.563370
 C         3.267138        -0.505636         0.445093
 O         2.378188         0.427509         1.093553
 H        -0.531252        -0.426033         0.996035
 H        -0.184779         1.346675         0.686300
 H        -0.746233         0.007705        -0.541010
 H         1.612546         0.630804        -2.218856
 H         2.232463         1.849509        -1.265851
 H         4.029345         0.380822        -1.799567
 H         2.138259        -1.523694        -2.466727
 H         3.550567        -2.236418        -1.587203
 H         2.214541        -2.852411         1.304670
 H         4.146787        -0.892289         1.151368
