19
Iteration:  2766charge 0 multiplicity 1
 C        -0.030619         0.379509         0.311692
 C         1.409792        -0.022532         0.054139
 C         1.975525         0.731152        -1.169122
 C         3.308405        -0.054365        -1.189437
 C         2.876439        -1.559414        -1.480197
 C         2.115713        -1.385772        -0.062737
 O         1.554089        -2.478775         0.546018
 C         3.214766        -0.465080         0.355104
 O         2.362576         0.354142         1.119259
 H        -0.530597        -0.336130         0.983391
 H        -0.119717         1.402553         0.603940
 H        -0.679591         0.150440        -0.628416
 H         1.185612         0.633664        -2.000128
 H         1.944038         1.773423        -0.813650
 H         4.271679         0.484607        -1.418983
 H         2.436421        -2.017075        -2.407754
 H         3.734709        -2.225745        -1.305073
 H         2.269144        -2.812495         1.092434
 H         4.311291        -0.708649         0.756582
