19
Iteration:  4206
 C        -0.070339         0.242170         0.234804
 C         1.390164         0.057894        -0.030866
 C         2.097219         0.761959        -1.151824
 C         3.394027        -0.094784        -1.118792
 C         2.873766        -1.488558        -1.459738
 C         2.076771        -1.379790        -0.071648
 O         1.475137        -2.512772         0.571426
 C         3.239740        -0.484479         0.404002
 O         2.355798         0.420925         1.132603
 H        -0.458592        -0.361048         1.121955
 H        -0.302854         1.268735         0.465148
 H        -0.588892        -0.102619        -0.619811
 H         1.386071         0.622939        -2.050178
 H         2.225828         1.839910        -0.960348
 H         4.225316         0.322804        -1.776363
 H         2.310401        -1.490701        -2.454497
 H         3.551756        -2.324155        -1.382825
 H         2.202658        -2.899303         1.020263
 H         4.067235        -0.944123         1.044773
