19
Iteration:  1556charge 0 multiplicity 1
 C         0.073156         0.171338         0.577758
 C         1.454034         0.102183         0.088294
 C         2.083099         0.699006        -1.190852
 C         3.268894        -0.124461        -1.217409
 C         2.589027        -1.520879        -1.494062
 C         2.047919        -1.280574        -0.124907
 O         1.453017        -2.389268         0.512429
 C         3.292057        -0.545838         0.360870
 O         2.537097         0.440776         1.013864
 H        -0.224832        -0.657384         1.261405
 H        -0.181183         1.116147         1.136539
 H        -0.621053        -0.028206        -0.244533
 H         1.471183         0.708744        -2.176748
 H         2.224861         1.772576        -0.810085
 H         4.263283         0.270434        -1.764104
 H         1.883636        -1.905576        -2.148084
 H         3.337134        -2.313078        -1.557336
 H         2.103920        -3.115698         0.227048
 H         4.136994        -0.836954         0.996520
