19
Iteration:  4619charge 0 multiplicity 1
 C        -0.041027         0.450238         0.378275
 C         1.394092         0.088251         0.019092
 C         2.043537         0.738622        -1.241705
 C         3.320938        -0.108879        -1.168485
 C         2.794798        -1.515950        -1.420744
 C         2.146149        -1.411375        -0.061061
 O         1.608433        -2.589776         0.462539
 C         3.291877        -0.533731         0.464096
 O         2.331852         0.346965         1.124867
 H        -0.568547        -0.494720         0.572322
 H        -0.081430         1.171549         1.164850
 H        -0.491031         0.842103        -0.564974
 H         1.398486         0.522771        -2.186077
 H         2.232635         1.909770        -0.964051
 H         4.246634         0.321864        -1.635368
 H         2.298717        -1.669493        -2.401237
 H         3.714628        -2.215995        -1.496304
 H         0.637066        -2.375805         0.737292
 H         4.103529        -0.788676         1.084250
