19
Iteration:  3495charge 0 multiplicity 1
 C         0.000932         0.134160         0.353108
 C         1.374859         0.141493        -0.057665
 C         2.113892         0.785156        -1.191845
 C         3.375541        -0.069165        -1.129122
 C         2.835117        -1.515127        -1.514232
 C         2.087637        -1.396978        -0.108452
 O         1.472033        -2.416707         0.561116
 C         3.204539        -0.530443         0.405634
 O         2.348632         0.383184         1.126352
 H        -0.138319        -0.559080         1.110075
 H        -0.285203         1.089338         0.752301
 H        -0.756409        -0.120429        -0.416267
 H         1.515256         0.830500        -2.124933
 H         2.217142         1.884037        -1.140364
 H         4.420322         0.138976        -1.416015
 H         2.225076        -1.687588        -2.417249
 H         3.534359        -2.369616        -1.488206
 H         2.015001        -2.674671         1.386287
 H         4.139932        -0.746509         1.003449
