19
Iteration:  2396
 C         0.000344         0.179984         0.367630
 C         1.432003         0.028276         0.035130
 C         2.034196         0.788681        -1.137993
 C         3.261532        -0.105899        -1.191654
 C         2.760001        -1.536335        -1.464498
 C         2.151448        -1.405627        -0.072659
 O         1.563437        -2.490124         0.595160
 C         3.279906        -0.436681         0.404298
 O         2.417888         0.453653         1.013205
 H        -0.252967        -0.594637         1.021165
 H        -0.212763         1.115157         0.860005
 H        -0.622221         0.208954        -0.564364
 H         1.435027         0.655893        -2.021480
 H         2.331370         1.806243        -0.906279
 H         4.198714         0.284612        -1.518643
 H         2.093502        -1.725045        -2.332861
 H         3.479830        -2.330931        -1.624767
 H         0.563566        -2.403143         0.409536
 H         4.193796        -0.748062         1.003798
