19
Iteration:  4679charge 0 multiplicity 1
 C         0.010312         0.372404         0.368929
 C         1.367570         0.070490        -0.053067
 C         2.105191         0.852645        -1.197706
 C         3.371989        -0.044114        -1.142650
 C         2.710164        -1.638239        -1.500666
 C         2.161219        -1.448041        -0.134485
 O         1.567929        -2.442100         0.583979
 C         3.240321        -0.536845         0.481314
 O         2.296547         0.313798         1.159680
 H        -0.415409        -0.334769         1.133560
 H         0.062728         1.434788         0.839031
 H        -0.662377         0.479656        -0.495311
 H         1.652850         0.787932        -2.181002
 H         2.350554         1.883483        -1.149092
 H         4.295154         0.356948        -1.596402
 H         2.010992        -1.725423        -2.496435
 H         3.603297        -2.242434        -1.638551
 H         1.492877        -3.297301         0.097936
 H         4.107907        -0.997265         1.077876
