19
Iteration:  3612
 C         0.012329         0.162831         0.347026
 C         1.402209         0.028978        -0.063507
 C         2.080654         0.754240        -1.211333
 C         3.403947        -0.069060        -1.131548
 C         2.829117        -1.478953        -1.435538
 C         2.070922        -1.337120        -0.126864
 O         1.555409        -2.446189         0.622400
 C         3.215463        -0.536552         0.440343
 O         2.298412         0.417643         1.120442
 H        -0.018039        -0.267114         1.358523
 H        -0.288898         1.302945         0.382599
 H        -0.723189        -0.443549        -0.336082
 H         1.702066         0.804527        -2.199540
 H         2.296273         1.866509        -1.201795
 H         4.202866         0.329635        -1.722890
 H         2.339386        -1.604564        -2.373273
 H         3.720925        -2.188644        -1.405316
 H         0.785711        -2.814212         0.145384
 H         4.080149        -0.984879         0.993799
