19
Iteration:  1282charge 0 multiplicity 1
 C         0.071278         0.320907         0.571865
 C         1.424245         0.070212         0.018232
 C         2.027792         0.718829        -1.227412
 C         3.308212        -0.172125        -1.197062
 C         2.698403        -1.472200        -1.568464
 C         2.020574        -1.360361        -0.187188
 O         1.655628        -2.438871         0.596989
 C         3.192624        -0.589748         0.410033
 O         2.379826         0.442577         1.098245
 H        -0.052807        -0.243175         1.485490
 H        -0.069415         1.375078         0.469233
 H        -0.650641        -0.033565        -0.041342
 H         1.517604         0.620950        -2.147997
 H         2.312041         1.717042        -0.864279
 H         4.236019         0.103633        -1.676725
 H         2.000030        -1.626712        -2.451263
 H         3.551601        -2.202333        -1.464947
 H         1.443275        -3.311276         0.136673
 H         4.161772        -0.805482         0.935291
