19
Iteration:  4807
 C         0.036731         0.521863         0.363486
 C         1.360640         0.051692         0.090857
 C         2.065654         0.780670        -1.210994
 C         3.296418        -0.141947        -1.170640
 C         2.762007        -1.487931        -1.508987
 C         2.074438        -1.428301        -0.157599
 O         1.647980        -2.603291         0.499585
 C         3.283699        -0.483687         0.430053
 O         2.364091         0.274609         1.195125
 H        -0.425827         0.109233         1.237721
 H         0.106046         1.581537         0.526848
 H        -0.703219         0.404899        -0.443055
 H         1.456677         0.470141        -2.141090
 H         2.048385         1.883563        -0.915401
 H         4.193988         0.252634        -1.546872
 H         2.234027        -1.334682        -2.454836
 H         3.441804        -2.387682        -1.522715
 H         0.675766        -2.736047         0.450704
 H         4.166940        -0.910540         1.004460
