19
Iteration:  3492charge 0 multiplicity 1
 C        -0.019634         0.130666         0.359006
 C         1.379699         0.138363        -0.071883
 C         2.117243         0.794782        -1.215018
 C         3.358026        -0.084411        -1.133049
 C         2.854467        -1.497125        -1.522179
 C         2.099517        -1.406333        -0.125536
 O         1.472495        -2.414075         0.562321
 C         3.208591        -0.538160         0.426290
 O         2.365233         0.386669         1.140358
 H        -0.067421        -0.586898         1.202799
 H        -0.409977         1.133342         0.774467
 H        -0.742836        -0.109956        -0.493291
 H         1.529111         0.821806        -2.103523
 H         2.174250         1.920002        -1.123572
 H         4.365477         0.099778        -1.377011
 H         2.128979        -1.641610        -2.313375
 H         3.504487        -2.477776        -1.459786
 H         1.921638        -2.654671         1.358994
 H         4.148351        -0.681342         1.016159
