19
Iteration:  4642charge 0 multiplicity 1
 C        -0.032338         0.477797         0.368630
 C         1.372811         0.033730         0.029521
 C         2.048144         0.705315        -1.149829
 C         3.354470        -0.108027        -1.036439
 C         2.804446        -1.547383        -1.513462
 C         2.019975        -1.430860        -0.179085
 O         1.705818        -2.638652         0.528601
 C         3.185961        -0.542629         0.400672
 O         2.384788         0.508751         1.102353
 H        -0.816519        -0.174592         0.723040
 H         0.200815         1.258909         1.068807
 H        -0.359839         1.061599        -0.567185
 H         1.512328         0.504915        -2.161844
 H         2.094287         1.849217        -0.773736
 H         4.165350         0.417795        -1.503943
 H         2.342175        -1.682836        -2.544492
 H         3.488847        -2.451287        -1.307213
 H         0.884144        -2.979114         0.209309
 H         3.939205        -0.952712         1.066069
