19
Iteration:  2698
 C         0.018748         0.040217         0.393407
 C         1.405408         0.082181         0.005079
 C         2.092095         0.791006        -1.223424
 C         3.337458        -0.101830        -1.304364
 C         2.789484        -1.494680        -1.430591
 C         2.117861        -1.363508        -0.028725
 O         1.407853        -2.442701         0.552197
 C         3.240105        -0.448110         0.495972
 O         2.406286         0.523099         1.068364
 H        -0.082280        -0.639617         1.212046
 H        -0.448191         1.075713         0.557827
 H        -0.519508        -0.440431        -0.373456
 H         1.510204         0.656189        -2.150332
 H         2.246426         1.864510        -0.966019
 H         4.326891         0.081338        -1.482359
 H         2.277345        -1.959035        -2.329893
 H         3.488971        -2.235591        -1.224350
 H         1.925877        -3.259114         0.254378
 H         4.162035        -0.645167         1.026737
