19
Iteration:   315charge 0 multiplicity 1
 C        -0.040181         0.156809         0.434929
 C         1.435467         0.049024        -0.010111
 C         2.033527         0.777564        -1.252198
 C         3.374166        -0.079884        -1.099699
 C         2.827214        -1.425065        -1.515793
 C         2.043543        -1.398012        -0.128044
 O         1.681445        -2.511344         0.629761
 C         3.144722        -0.493562         0.389769
 O         2.362649         0.439910         1.061421
 H        -0.264434        -0.460451         1.309670
 H        -0.247970         1.197965         0.691588
 H        -0.833199        -0.027543        -0.318994
 H         1.449502         0.566622        -2.236471
 H         2.362165         1.858410        -1.183382
 H         4.236628         0.189136        -1.479616
 H         2.275918        -1.503994        -2.396604
 H         3.585164        -2.217426        -1.370800
 H         0.793631        -2.900845         0.516556
 H         4.057291        -0.765320         0.926212
