19
Iteration:  4489charge 0 multiplicity 1
 C        -0.082715         0.447533         0.417811
 C         1.329017         0.073584         0.068941
 C         2.069508         0.716034        -1.193274
 C         3.447766        -0.167658        -1.121653
 C         2.873342        -1.546758        -1.532124
 C         2.113098        -1.379868        -0.158731
 O         1.632965        -2.534381         0.539688
 C         3.153992        -0.524784         0.455000
 O         2.293575         0.425981         1.096338
 H        -0.267677         0.514566         1.534126
 H        -0.300649         1.480150         0.152285
 H        -0.776361        -0.334615        -0.006206
 H         1.563217         0.601673        -2.136300
 H         2.268864         1.755659        -1.126595
 H         4.379404         0.229272        -1.601380
 H         2.300387        -1.700655        -2.497607
 H         3.647443        -2.291991        -1.249783
 H         1.428780        -3.167081        -0.156591
 H         4.017868        -0.935513         1.026153
