19
Iteration:  4714
 C        -0.103841         0.158687         0.331426
 C         1.454760         0.040643         0.085883
 C         2.148249         0.817971        -1.151325
 C         3.378562        -0.057294        -1.127276
 C         2.768071        -1.496062        -1.538919
 C         2.092542        -1.362049        -0.089873
 O         1.297360        -2.374115         0.536686
 C         3.319237        -0.562271         0.418514
 O         2.514088         0.397765         1.087552
 H        -0.415669        -0.387084         1.281343
 H        -0.565350         1.198319         0.332068
 H        -0.588376        -0.465010        -0.421200
 H         1.676505         0.587395        -2.064111
 H         2.271822         1.833668        -0.871721
 H         4.299357         0.284890        -1.710320
 H         2.127356        -1.522109        -2.564529
 H         3.522769        -2.325460        -1.529524
 H         1.842028        -3.166513         0.781737
 H         4.087728        -1.047809         0.981338
