19
Iteration:  4066charge 0 multiplicity 1
 C        -0.142376         0.147408         0.258918
 C         1.378801         0.032411         0.019838
 C         2.130085         0.798802        -1.204729
 C         3.424721        -0.079852        -1.080793
 C         2.839869        -1.486084        -1.479017
 C         2.100399        -1.380161        -0.109494
 O         1.466050        -2.387138         0.587802
 C         3.281840        -0.546748         0.426213
 O         2.359805         0.401049         1.086561
 H        -0.432789        -0.075207         1.277776
 H        -0.383102         1.181540         0.116576
 H        -0.696622        -0.563233        -0.304816
 H         1.544972         0.796784        -2.136306
 H         2.245184         1.787907        -0.866733
 H         4.279816         0.203006        -1.708806
 H         2.194133        -1.536212        -2.345384
 H         3.608332        -2.197326        -1.419298
 H         2.023809        -3.061651         0.886063
 H         4.172928        -0.749079         1.082092
