19
Iteration:  1436
 C         0.052139         0.299549         0.470815
 C         1.449262         0.069426         0.128334
 C         1.939218         0.726874        -1.160006
 C         3.252484        -0.152605        -1.182324
 C         2.691728        -1.516543        -1.515812
 C         2.077976        -1.375919        -0.153282
 O         1.543488        -2.513271         0.480179
 C         3.327301        -0.519312         0.360280
 O         2.482786         0.405564         1.084845
 H        -0.417861        -0.133261         1.342330
 H         0.071374         1.354347         0.764625
 H        -0.558044         0.103273        -0.349606
 H         1.366203         0.649863        -2.101109
 H         2.161376         1.804750        -1.010447
 H         4.135839         0.289193        -1.806333
 H         2.012550        -1.716980        -2.428219
 H         3.453130        -2.326019        -1.643935
 H         1.482646        -2.202557         1.378878
 H         4.328178        -0.650075         0.775551
