19
Iteration:  3122
 C        -0.124727         0.296416         0.317131
 C         1.412475         0.081495         0.030772
 C         2.091809         0.795825        -1.226868
 C         3.349022        -0.092822        -1.121528
 C         2.786238        -1.548874        -1.501924
 C         2.145302        -1.445994        -0.148560
 O         1.611024        -2.521698         0.560686
 C         3.273779        -0.474694         0.502613
 O         2.299985         0.390833         1.083499
 H        -0.556065        -0.439405         1.043348
 H        -0.364346         1.399568         0.677895
 H        -0.797401         0.094812        -0.541513
 H         1.399744         0.545829        -2.102213
 H         2.306621         1.926869        -0.971363
 H         4.308022         0.318663        -1.460415
 H         2.128863        -1.633653        -2.455159
 H         3.550095        -2.314623        -1.791915
 H         1.977556        -2.470832         1.484669
 H         4.198510        -0.838988         0.930198
