19
Iteration:  2679charge 0 multiplicity 1
 C        -0.069244         0.086334         0.325480
 C         1.445151         0.061084         0.050578
 C         2.017722         0.800600        -1.220582
 C         3.290698        -0.066723        -1.139866
 C         2.847569        -1.617412        -1.400544
 C         2.180309        -1.386897        -0.082829
 O         1.400908        -2.345191         0.552736
 C         3.329153        -0.451016         0.411120
 O         2.421786         0.447495         1.085442
 H        -0.183781        -0.425325         1.262643
 H        -0.508115         1.094427         0.338150
 H        -0.561864        -0.464631        -0.594218
 H         1.293510         0.621243        -2.030173
 H         2.263775         1.801153        -0.916942
 H         3.998229         0.242357        -1.887209
 H         2.121965        -1.691245        -2.261808
 H         3.753563        -2.185814        -1.604324
 H         1.785177        -3.253728         0.493153
 H         4.310500        -0.642335         1.016651
