19
Iteration:  2320
 C        -0.053902         0.262174         0.510948
 C         1.340642         0.055741        -0.039327
 C         2.091673         0.757836        -1.179336
 C         3.343613        -0.099333        -1.199019
 C         2.786645        -1.499397        -1.479137
 C         2.120682        -1.414015        -0.131602
 O         1.531317        -2.502454         0.562781
 C         3.272497        -0.530954         0.407851
 O         2.360039         0.426284         1.001481
 H        -0.257938        -0.191463         1.412334
 H        -0.024096         1.290684         0.772229
 H        -0.870688         0.085398        -0.213991
 H         1.555868         0.654397        -2.098929
 H         2.390980         1.694759        -0.716934
 H         4.186193         0.257593        -1.772583
 H         2.099594        -1.525394        -2.345421
 H         3.480486        -2.348038        -1.689077
 H         1.962097        -2.722596         1.382313
 H         4.322982        -0.530351         0.890577
