19
Iteration:  2124charge 0 multiplicity 1
 C        -0.009921         0.244131         0.521592
 C         1.438822         0.048283        -0.061658
 C         2.121671         0.829712        -1.234502
 C         3.295327        -0.092493        -1.207968
 C         2.730119        -1.485596        -1.508621
 C         2.063623        -1.418852        -0.131944
 O         1.515297        -2.468007         0.608197
 C         3.206912        -0.517013         0.378783
 O         2.398488         0.366887         1.032084
 H        -0.008172        -0.448686         1.322351
 H        -0.196695         1.308806         0.850396
 H        -0.939323        -0.193020         0.028740
 H         1.658658         0.732115        -2.227336
 H         2.417180         1.892467        -1.040848
 H         4.390716         0.109403        -1.381700
 H         2.039029        -1.394166        -2.259070
 H         3.368672        -2.359689        -1.432612
 H         2.156827        -2.717612         1.318214
 H         4.261482        -0.775645         0.840748
