19
Iteration:   301charge 0 multiplicity 1
 C        -0.069136         0.235736         0.435881
 C         1.307386         0.064809        -0.031358
 C         2.063422         0.775585        -1.154473
 C         3.286782        -0.067755        -1.182998
 C         2.857819        -1.566863        -1.535877
 C         2.136938        -1.411020        -0.185565
 O         1.709115        -2.439708         0.641789
 C         3.264972        -0.531447         0.433022
 O         2.303695         0.405907         1.083299
 H        -0.110703        -0.379553         1.299963
 H        -0.320547         1.249229         0.689524
 H        -0.725132        -0.135261        -0.430190
 H         1.563336         0.721341        -2.178273
 H         2.024087         1.798520        -0.827128
 H         4.254601         0.464013        -1.585787
 H         2.355988        -1.732494        -2.490458
 H         3.770372        -2.237197        -1.541441
 H         0.711660        -2.370695         0.454272
 H         4.033424        -0.992124         1.008748
