19
Iteration:  4122
 C        -0.101447         0.187277         0.286270
 C         1.386330         0.029120        -0.027509
 C         2.078956         0.693384        -1.230126
 C         3.393320        -0.039456        -1.128206
 C         2.872270        -1.521755        -1.417379
 C         2.137386        -1.344364        -0.047560
 O         1.449121        -2.405645         0.578986
 C         3.250683        -0.522820         0.480386
 O         2.397023         0.453528         1.084178
 H        -0.217569        -0.730411         0.793884
 H        -0.429441         1.054010         0.894266
 H        -0.632555         0.347541        -0.717794
 H         1.481484         0.602866        -2.130673
 H         2.093506         1.668503        -0.780825
 H         4.215855         0.374719        -1.659866
 H         2.315418        -1.879092        -2.265832
 H         3.647362        -2.300374        -1.395307
 H         1.507011        -3.196125        -0.047246
 H         4.203996        -0.642013         1.056170
