19
Iteration:  1433
 C         0.040014         0.303203         0.492474
 C         1.461627         0.058211         0.131027
 C         1.945009         0.722327        -1.173814
 C         3.270291        -0.156018        -1.201027
 C         2.688074        -1.510279        -1.526565
 C         2.069077        -1.377522        -0.156668
 O         1.529975        -2.493463         0.482145
 C         3.338653        -0.503867         0.348927
 O         2.479753         0.392165         1.093929
 H        -0.429494        -0.202757         1.379675
 H        -0.098011         1.391981         0.765482
 H        -0.504064         0.110674        -0.454380
 H         1.298261         0.617727        -2.062764
 H         2.122063         1.858922        -1.109805
 H         4.135551         0.170653        -1.711818
 H         2.063166        -1.650691        -2.334845
 H         3.577338        -2.215914        -1.553667
 H         1.520413        -2.317384         1.480049
 H         4.343029        -0.747040         0.749401
