19
Iteration:  1867
 C        -0.022760         0.249608         0.599319
 C         1.457599         0.087566         0.072144
 C         2.026673         0.712694        -1.203545
 C         3.305122        -0.073863        -1.239421
 C         2.650079        -1.573831        -1.567592
 C         2.091533        -1.364702        -0.049866
 O         1.549373        -2.516266         0.461983
 C         3.281895        -0.471935         0.360241
 O         2.541089         0.430985         1.076373
 H        -0.306671        -0.273286         1.575656
 H        -0.286005         1.358449         0.668316
 H        -0.821098        -0.283766        -0.064434
 H         1.470914         0.639188        -2.224269
 H         2.323771         1.778046        -0.870053
 H         4.268396         0.328133        -1.693486
 H         1.985242        -1.683264        -2.451768
 H         3.420123        -2.295982        -1.585326
 H         0.683777        -2.362034         0.905323
 H         4.277664        -0.794871         0.807745
