19
Iteration:  4515
 C        -0.025858         0.365614         0.240637
 C         1.396562         0.052231         0.020993
 C         2.009724         0.758474        -1.169591
 C         3.325278        -0.070155        -1.075418
 C         2.798553        -1.475958        -1.435482
 C         2.125467        -1.431403        -0.111259
 O         1.491181        -2.552638         0.571706
 C         3.255284        -0.508739         0.436362
 O         2.447597         0.400655         1.121896
 H        -0.227852         0.308077         1.303512
 H        -0.441842         1.358796        -0.081632
 H        -0.518631        -0.558307        -0.185976
 H         1.556297         0.608465        -2.155363
 H         2.140487         1.841552        -1.014505
 H         4.184214         0.278826        -1.608750
 H         2.164398        -1.700002        -2.360922
 H         3.665233        -2.116753        -1.372607
 H         1.420918        -3.248085        -0.103293
 H         4.350134        -0.787035         0.957942
