19
Iteration:  3885
 C        -0.033735         0.232300         0.289487
 C         1.346207         0.102130        -0.071163
 C         2.064113         0.755900        -1.215109
 C         3.366303        -0.157857        -1.140534
 C         2.796385        -1.516887        -1.511544
 C         2.129796        -1.365840        -0.094864
 O         1.552953        -2.568468         0.507227
 C         3.199955        -0.475219         0.572185
 O         2.328166         0.503021         1.114326
 H        -0.167500        -0.361446         1.124041
 H        -0.175107         1.248725         0.695594
 H        -0.788008         0.042635        -0.477040
 H         1.648966         0.674527        -2.251537
 H         2.352391         1.742428        -0.666582
 H         4.310894         0.095723        -1.477306
 H         2.352932        -1.630976        -2.480745
 H         3.712881        -2.226962        -1.512759
 H         2.103749        -2.821822         1.319198
 H         4.047919        -0.774175         1.176107
