19
Iteration:  3697
 C        -0.132684         0.264338         0.299101
 C         1.319348         0.012226         0.023306
 C         2.147728         0.756804        -1.252632
 C         3.458678        -0.150829        -1.170701
 C         2.803936        -1.488268        -1.493669
 C         2.097698        -1.373439        -0.092960
 O         1.561012        -2.562381         0.543504
 C         3.191470        -0.430489         0.510209
 O         2.329167         0.437858         1.102478
 H        -0.357912        -0.359491         1.151345
 H        -0.330941         1.289524         0.666775
 H        -0.730870         0.172187        -0.613210
 H         1.546036         0.475491        -2.187086
 H         2.366013         1.852127        -0.915375
 H         4.361530         0.442132        -1.447642
 H         2.251140        -1.612110        -2.429200
 H         3.664957        -2.183912        -1.524985
 H         2.178273        -2.609458         1.333106
 H         4.102723        -0.728562         1.096631
