19
Iteration:  2997charge 0 multiplicity 1
 C        -0.052879         0.102631         0.374416
 C         1.406807         0.077638         0.018701
 C         2.153877         0.807329        -1.211680
 C         3.361846        -0.070373        -1.182280
 C         2.753369        -1.540223        -1.479603
 C         2.112509        -1.346818        -0.102012
 O         1.452245        -2.453978         0.645312
 C         3.286988        -0.510174         0.371260
 O         2.344646         0.485078         1.060605
 H        -0.215884        -0.788514         1.084950
 H        -0.305735         1.001470         0.865399
 H        -0.834383        -0.151025        -0.389464
 H         1.704585         1.063194        -2.176556
 H         2.356065         1.792315        -0.852906
 H         4.321370         0.229571        -1.556199
 H         2.214187        -1.663760        -2.406604
 H         3.473335        -2.392911        -1.311299
 H         2.003009        -3.195559         0.344221
 H         4.190505        -0.789025         0.980831
