19
Iteration:  2149
 C        -0.014390         0.285868         0.555203
 C         1.441774         0.072312         0.049601
 C         2.018941         0.716204        -1.165995
 C         3.332260        -0.100433        -1.197281
 C         2.784130        -1.588259        -1.542150
 C         2.089920        -1.386978        -0.219760
 O         1.497604        -2.420660         0.526154
 C         3.245209        -0.493924         0.392812
 O         2.407643         0.445973         1.062400
 H        -0.299884        -0.579340         1.173008
 H        -0.148142         1.238621         1.003988
 H        -0.813319         0.122645        -0.207145
 H         1.453185         0.501900        -2.102097
 H         2.364255         1.703639        -1.168966
 H         4.215103         0.249056        -1.612746
 H         2.240315        -1.646804        -2.467439
 H         3.439703        -2.393410        -1.222532
 H         2.202024        -2.767668         1.165036
 H         4.019465        -1.049653         0.887686
