19
Iteration:  1722charge 0 multiplicity 1
 C         0.071054         0.229637         0.601956
 C         1.440040         0.079205         0.026019
 C         2.014657         0.811737        -1.192431
 C         3.311300        -0.045541        -1.236381
 C         2.682749        -1.502865        -1.530936
 C         2.077370        -1.404479        -0.133696
 O         1.427988        -2.391350         0.545426
 C         3.291627        -0.607693         0.319186
 O         2.503830         0.331265         1.051966
 H        -0.063930        -0.439599         1.463451
 H        -0.054486         1.266822         0.907277
 H        -0.703486        -0.293463        -0.084799
 H         1.228739         0.672627        -2.058786
 H         2.097285         1.885526        -1.036208
 H         4.093990         0.400044        -1.813959
 H         2.246254        -1.615046        -2.473200
 H         3.342810        -2.324542        -1.500024
 H         1.894838        -2.603723         1.374644
 H         4.276731        -0.872015         0.753089
