19
Iteration:  2073
 C        -0.060929         0.276176         0.320763
 C         1.477552         0.125630         0.046137
 C         1.982200         0.773412        -1.130667
 C         3.274335        -0.051470        -1.185136
 C         2.655999        -1.539489        -1.480276
 C         2.045948        -1.359772        -0.073826
 O         1.590806        -2.512130         0.553743
 C         3.349192        -0.527367         0.286038
 O         2.572742         0.341951         1.174938
 H        -0.470746        -0.157028         1.278685
 H        -0.562896         1.244585         0.291502
 H        -0.559102        -0.333058        -0.503798
 H         1.565896         0.632619        -2.170132
 H         1.934801         1.864774        -1.082575
 H         4.068108         0.307933        -1.809086
 H         1.824428        -1.824028        -2.296439
 H         3.536077        -2.285853        -1.563812
 H         1.104623        -2.334823         1.335227
 H         4.199414        -0.924857         0.810213
