19
Iteration:  4520
 C        -0.040470         0.294792         0.242159
 C         1.416000         0.060405         0.012789
 C         2.007103         0.769767        -1.153217
 C         3.348213        -0.044836        -1.092077
 C         2.739601        -1.470060        -1.425932
 C         2.193477        -1.443815        -0.064505
 O         1.482148        -2.487013         0.544513
 C         3.259882        -0.503741         0.494023
 O         2.445688         0.378421         1.078231
 H        -0.228109         0.305760         1.341669
 H        -0.272290         1.284613        -0.152451
 H        -0.664193        -0.412311        -0.280098
 H         1.518629         0.602571        -2.153338
 H         2.036045         1.910160        -0.879257
 H         4.303916         0.186349        -1.655347
 H         2.189140        -1.820940        -2.261672
 H         3.602667        -2.246020        -1.448314
 H         1.388552        -3.280598        -0.058833
 H         4.130409        -0.904509         0.775829
