19
Iteration:  2767charge 0 multiplicity 1
 C        -0.038350         0.380015         0.312610
 C         1.413736        -0.013355         0.060671
 C         1.974582         0.735407        -1.170753
 C         3.309423        -0.054489        -1.191607
 C         2.870843        -1.555259        -1.473051
 C         2.116004        -1.398191        -0.069580
 O         1.556789        -2.476889         0.543012
 C         3.218282        -0.469270         0.363231
 O         2.363498         0.354346         1.112201
 H        -0.552896        -0.348282         1.006589
 H        -0.139523         1.395979         0.585238
 H        -0.702219         0.172187        -0.656706
 H         1.172875         0.608090        -1.997503
 H         1.952001         1.764856        -0.787922
 H         4.307135         0.473997        -1.440767
 H         2.435514        -2.008019        -2.384358
 H         3.757197        -2.246442        -1.329739
 H         2.288917        -2.809836         1.113349
 H         4.312026        -0.707334         0.769983
