19
Iteration:  3963
 C        -0.109567         0.221502         0.291003
 C         1.349142         0.007966        -0.041113
 C         2.085856         0.717408        -1.162131
 C         3.345005        -0.089866        -1.108179
 C         2.828592        -1.526224        -1.417752
 C         2.137838        -1.401071        -0.127883
 O         1.564537        -2.470396         0.550008
 C         3.336163        -0.463638         0.391711
 O         2.367804         0.400936         1.139613
 H        -0.440705        -0.495346         0.988898
 H        -0.324506         1.183798         0.716879
 H        -0.682182         0.338384        -0.601607
 H         1.559862         0.728636        -2.156272
 H         2.104989         1.867323        -1.021258
 H         4.289296         0.219659        -1.584804
 H         2.315844        -1.472754        -2.406128
 H         3.559564        -2.390933        -1.342405
 H         0.687903        -2.067107         0.880125
 H         4.276650        -0.567006         0.928473
