19
Iteration:  4898charge 0 multiplicity 1
 C         0.049798         0.132313         0.435882
 C         1.494086         0.004830         0.028718
 C         2.110768         0.763297        -1.120247
 C         3.334023        -0.079296        -1.185564
 C         2.771877        -1.480261        -1.527619
 C         2.073001        -1.375296        -0.114348
 O         1.278271        -2.346759         0.556723
 C         3.269027        -0.517433         0.345712
 O         2.490412         0.415771         1.114198
 H        -0.251282        -0.843465         0.879399
 H        -0.033464         0.970780         1.154364
 H        -0.667265         0.286939        -0.317742
 H         1.683460         0.536182        -2.208252
 H         2.316252         1.829993        -0.893665
 H         4.399633         0.282999        -1.374908
 H         2.204200        -1.475064        -2.425525
 H         3.541711        -2.205717        -1.522786
 H         1.105270        -3.118816         0.071962
 H         4.102237        -0.903619         0.896406
