19
Iteration:   112
 C        -0.085730         0.138338         0.291046
 C         1.400364         0.025812         0.043315
 C         2.134187         0.787812        -1.197268
 C         3.348225        -0.077828        -1.108992
 C         2.793795        -1.452981        -1.464722
 C         2.047480        -1.392186        -0.064253
 O         1.707458        -2.559920         0.614238
 C         3.223312        -0.428964         0.395186
 O         2.310883         0.467891         1.069189
 H        -0.420220        -0.522409         1.118757
 H        -0.411556         1.178242         0.562344
 H        -0.624243         0.002914        -0.598531
 H         1.604878         0.731843        -2.177053
 H         2.385682         1.836333        -0.957222
 H         4.343961         0.322935        -1.686994
 H         2.181959        -1.421299        -2.434417
 H         3.317977        -2.371480        -1.392969
 H         0.786882        -2.902445         0.379685
 H         4.143702        -0.747594         0.868496
