19
Iteration:    59charge 0 multiplicity 1
 C        -0.029893         0.228162         0.364779
 C         1.397724        -0.121310        -0.027648
 C         2.018369         0.783875        -1.172294
 C         3.334882        -0.001823        -1.149794
 C         2.938689        -1.539436        -1.480528
 C         2.134969        -1.470684        -0.074945
 O         1.512254        -2.536253         0.600237
 C         3.279660        -0.302900         0.341502
 O         2.312886         0.405222         1.089220
 H        -0.043893        -0.152955         1.428137
 H        -0.294814         1.345256         0.393047
 H        -0.790668        -0.239937        -0.283317
 H         1.433967         0.838214        -2.227043
 H         2.066956         1.765993        -0.606712
 H         4.396693         0.379601        -1.578369
 H         2.499464        -1.804627        -2.503892
 H         3.841578        -2.087091        -1.254688
 H         0.513928        -2.389579         0.533468
 H         4.217185        -0.641356         0.796799
