19
Iteration:  3588
 C        -0.085349         0.248972         0.403703
 C         1.383114         0.125835         0.004423
 C         2.107785         0.797654        -1.211166
 C         3.392369        -0.104475        -1.089930
 C         2.835783        -1.591823        -1.475404
 C         2.152636        -1.447331        -0.131728
 O         1.544639        -2.521340         0.590887
 C         3.189126        -0.492382         0.459508
 O         2.334626         0.457633         1.054090
 H        -0.326400        -0.401136         1.298594
 H        -0.394405         1.327636         0.603264
 H        -0.691911        -0.123227        -0.470755
 H         1.649533         0.901022        -2.236857
 H         2.143469         1.936208        -1.144177
 H         4.289785         0.327887        -1.524829
 H         2.299053        -1.750109        -2.411654
 H         3.738017        -2.192310        -1.503261
 H         1.283649        -3.136568        -0.053886
 H         4.169424        -0.474652         0.960303
