19
Iteration:    20
 C        -0.076432         0.120251         0.381236
 C         1.372498         0.125780         0.014451
 C         2.092115         0.660570        -1.308170
 C         3.412176        -0.103294        -1.083588
 C         2.725732        -1.477382        -1.458537
 C         2.042153        -1.292552        -0.140897
 O         1.679303        -2.598300         0.459683
 C         3.268174        -0.422597         0.432328
 O         2.372903         0.546606         1.196327
 H        -0.182834        -0.451848         1.281117
 H        -0.547100         1.056742         0.570824
 H        -0.726005        -0.243144        -0.481278
 H         1.613789         0.237694        -2.101545
 H         2.118197         1.715951        -1.427683
 H         4.295089         0.252672        -1.446602
 H         2.203387        -1.405034        -2.380735
 H         3.302417        -2.440778        -1.315607
 H         0.912134        -2.610662         0.987503
 H         4.082874        -0.773175         1.116331
