19
Iteration:   843
 C        -0.089070         0.214155         0.319310
 C         1.443358         0.014354         0.065642
 C         1.939827         0.718166        -1.249984
 C         3.316838        -0.039196        -1.154792
 C         2.840086        -1.542500        -1.458998
 C         2.074092        -1.367807        -0.043042
 O         1.525021        -2.433620         0.584472
 C         3.323002        -0.457191         0.378934
 O         2.463056         0.426445         1.129002
 H        -0.512434        -0.451384         1.037368
 H        -0.338812         1.175340         0.776157
 H        -0.614136        -0.120336        -0.516088
 H         1.529889         0.476842        -2.236126
 H         2.018590         1.794264        -1.111837
 H         4.309205         0.445924        -1.527339
 H         2.117395        -1.589995        -2.334567
 H         3.523081        -2.309930        -1.269605
 H         1.741087        -3.144691         0.036255
 H         4.176404        -0.800684         0.794701
