19
Iteration:  3844
 C        -0.099455         0.282696         0.281245
 C         1.414592        -0.047610         0.008109
 C         2.071651         0.689002        -1.157140
 C         3.329025        -0.100039        -1.146556
 C         2.963985        -1.503203        -1.522627
 C         2.097715        -1.417984        -0.117046
 O         1.479635        -2.403921         0.528828
 C         3.235654        -0.477550         0.447708
 O         2.349713         0.416107         1.175926
 H        -0.349231         0.000479         1.378313
 H        -0.360495         1.349314         0.143352
 H        -0.748477        -0.180430        -0.478418
 H         1.431485         0.508920        -2.051558
 H         2.135946         1.832370        -1.078880
 H         4.119734         0.557809        -1.637104
 H         2.479374        -1.563034        -2.489328
 H         3.651211        -2.347610        -1.427103
 H         2.048702        -2.857967         1.087778
 H         4.095015        -0.765417         1.095503
