19
Iteration:  1583
 C         0.031955         0.248821         0.647197
 C         1.445221         0.084540         0.071278
 C         2.039682         0.800872        -1.268327
 C         3.246158        -0.112269        -1.242378
 C         2.746724        -1.507716        -1.613673
 C         2.099002        -1.405933        -0.168230
 O         1.406599        -2.432578         0.595998
 C         3.322013        -0.574033         0.370182
 O         2.490962         0.385502         1.062208
 H        -0.375379        -0.508024         1.303088
 H        -0.045073         1.248530         1.026690
 H        -0.706030         0.219776        -0.191068
 H         1.262350         0.662145        -2.000999
 H         2.276964         1.791469        -0.965203
 H         4.133537         0.205467        -1.615182
 H         1.915668        -1.610000        -2.488524
 H         3.495060        -2.290623        -1.872136
 H         2.179576        -2.756445         1.168043
 H         4.265846        -0.785684         0.888643
