19
Iteration:  4155charge 0 multiplicity 1
 C        -0.053994         0.355569         0.369107
 C         1.389663         0.086789         0.004038
 C         2.087042         0.646576        -1.260074
 C         3.383108        -0.033358        -1.118603
 C         2.950429        -1.534136        -1.478398
 C         2.111893        -1.449851        -0.098025
 O         1.479706        -2.504232         0.603574
 C         3.238533        -0.451660         0.426138
 O         2.260378         0.397089         1.094092
 H        -0.482579        -0.549556         0.720934
 H        -0.179757         1.172589         1.111280
 H        -0.762808         0.480686        -0.528412
 H         1.592899         0.560726        -2.231862
 H         2.112782         1.735312        -1.135653
 H         4.319421         0.292754        -1.473888
 H         2.393040        -1.712447        -2.403168
 H         3.754172        -2.215012        -1.169070
 H         1.879778        -3.217426         0.126479
 H         4.179022        -0.438143         1.036763
