19
Iteration:  2608charge 0 multiplicity 1
 C        -0.100627         0.362207         0.370417
 C         1.399890        -0.019549         0.034331
 C         2.108533         0.796660        -1.167220
 C         3.338537        -0.163855        -1.272907
 C         2.813034        -1.532658        -1.383890
 C         2.062638        -1.348228        -0.113301
 O         1.646095        -2.593927         0.541301
 C         3.206059        -0.458553         0.423334
 O         2.289579         0.461744         1.039108
 H        -0.368632        -0.406489         1.191404
 H        -0.348038         1.428837         0.648989
 H        -0.744776         0.073692        -0.457696
 H         1.590418         0.713284        -2.149599
 H         2.206824         1.806460        -0.681824
 H         4.432459         0.171368        -1.588402
 H         2.190276        -1.714879        -2.301006
 H         3.651785        -2.298157        -1.485261
 H         2.352266        -2.745195         1.197891
 H         4.058622        -0.713742         0.985114
