19
Iteration:  4433
 C        -0.089982         0.233161         0.246155
 C         1.379969         0.075332         0.054909
 C         2.034240         0.734013        -1.132608
 C         3.344205        -0.141580        -1.111307
 C         2.826292        -1.536588        -1.505178
 C         2.129163        -1.337128        -0.114857
 O         1.577482        -2.461841         0.566140
 C         3.266285        -0.545390         0.469960
 O         2.425137         0.419812         1.106189
 H        -0.442237        -0.517936         1.032653
 H        -0.271577         1.282521         0.518829
 H        -0.703615         0.126647        -0.640537
 H         1.444604         0.644119        -2.034017
 H         2.409457         1.754366        -0.970549
 H         4.135479         0.445073        -1.671909
 H         2.277951        -1.568629        -2.452499
 H         3.630647        -2.380209        -1.492686
 H         0.570451        -2.321117         0.509017
 H         4.167343        -0.743195         0.907858
