19
Iteration:  2465
 C        -0.032238         0.305690         0.301278
 C         1.415035         0.035560         0.102594
 C         2.016465         0.767874        -1.223527
 C         3.263105        -0.058256        -1.240232
 C         2.825894        -1.511618        -1.431922
 C         2.157145        -1.413451        -0.088495
 O         1.493112        -2.539990         0.572488
 C         3.212918        -0.456563         0.389651
 O         2.442211         0.388495         1.098410
 H        -0.134490         0.186342         1.397079
 H        -0.257714         1.307174         0.017259
 H        -0.716698        -0.305027        -0.268155
 H         1.205718         0.784983        -1.974591
 H         2.187214         1.698479        -0.712867
 H         4.189493         0.368826        -1.716415
 H         2.268332        -1.779062        -2.315977
 H         3.778692        -2.135267        -1.542107
 H         2.051108        -3.170486         1.039208
 H         4.094560        -0.730011         0.969991
