19
Iteration:    88
 C        -0.096795         0.223896         0.309325
 C         1.399272         0.040766        -0.010725
 C         1.969365         0.733007        -1.231263
 C         3.304158        -0.031080        -1.081607
 C         2.900175        -1.510465        -1.580867
 C         2.170173        -1.369585        -0.156178
 O         1.692754        -2.338777         0.606462
 C         3.258216        -0.591944         0.520202
 O         2.316113         0.325712         1.138540
 H        -0.199120        -0.269623         1.288218
 H        -0.431886         1.234865         0.479400
 H        -0.792093        -0.121783        -0.404178
 H         1.465856         0.269534        -1.996378
 H         1.900921         1.788298        -1.361983
 H         4.159079         0.489152        -1.560747
 H         2.414329        -1.650916        -2.560833
 H         3.720111        -2.193711        -1.409418
 H         0.687610        -2.314042         0.682222
 H         4.023016        -1.122106         1.042969
