19
Iteration:  4132charge 0 multiplicity 1
 C        -0.053935         0.209078         0.264151
 C         1.409817         0.011133        -0.020422
 C         1.946330         0.691104        -1.167477
 C         3.348097        -0.069196        -1.110981
 C         2.922368        -1.555790        -1.372568
 C         2.144053        -1.404788        -0.145574
 O         1.491702        -2.367115         0.551464
 C         3.259116        -0.511447         0.479411
 O         2.393033         0.487253         1.077073
 H        -0.614483        -0.567675         0.749441
 H         0.012235         1.055769         0.948611
 H        -0.724160         0.435654        -0.581100
 H         1.477153         0.690211        -2.163588
 H         2.099007         1.758798        -1.038270
 H         4.278696         0.275032        -1.528447
 H         2.285390        -1.664117        -2.278769
 H         3.689561        -2.260398        -1.107692
 H         1.555353        -3.218775        -0.030186
 H         4.010053        -1.025667         1.199360
