19
Iteration:  4797charge 0 multiplicity 1
 C         0.006482         0.480349         0.408347
 C         1.451387         0.026289         0.081965
 C         2.053987         0.775495        -1.151421
 C         3.406238        -0.068773        -1.152923
 C         2.762155        -1.477389        -1.542523
 C         2.072300        -1.402861        -0.106654
 O         1.635958        -2.572540         0.480524
 C         3.162883        -0.578354         0.401539
 O         2.338252         0.296531         1.128622
 H        -0.275626         0.181187         1.400262
 H         0.028812         1.561792         0.374066
 H        -0.636503         0.145236        -0.387290
 H         1.245848         0.687188        -1.958001
 H         2.218084         1.896314        -1.153648
 H         4.232829         0.083742        -1.773266
 H         2.384936        -1.602638        -2.487577
 H         3.432192        -2.313052        -1.378111
 H         0.652515        -2.548065         0.732932
 H         4.085347        -0.908349         0.967288
