19
Iteration:  4638charge 0 multiplicity 1
 C        -0.026385         0.465403         0.340354
 C         1.404615         0.030758         0.027830
 C         2.044559         0.705236        -1.134374
 C         3.326651        -0.102213        -1.050004
 C         2.823077        -1.527149        -1.492363
 C         2.057576        -1.412068        -0.184757
 O         1.702335        -2.628088         0.505639
 C         3.157069        -0.565166         0.419553
 O         2.393542         0.498624         1.090950
 H        -0.871510        -0.130474         0.748640
 H         0.162730         1.262439         1.082433
 H        -0.409579         1.080969        -0.420171
 H         1.524855         0.541258        -2.051977
 H         2.004559         1.728397        -0.859344
 H         4.195407         0.391607        -1.594457
 H         2.288225        -1.801784        -2.334251
 H         3.349876        -2.431114        -1.279172
 H         0.769988        -2.974313         0.339779
 H         3.951107        -0.903751         1.048584
