19
Iteration:  2405
 C        -0.015660         0.192711         0.406143
 C         1.479129         0.051019        -0.012841
 C         2.055479         0.750999        -1.233017
 C         3.325074        -0.070675        -1.164497
 C         2.714505        -1.534219        -1.515117
 C         2.110274        -1.440296        -0.109378
 O         1.605010        -2.482730         0.588709
 C         3.255731        -0.465900         0.454904
 O         2.395178         0.456975         1.074440
 H        -0.267278        -0.560568         1.182866
 H        -0.292245         1.222264         0.896395
 H        -0.759259         0.024420        -0.433755
 H         1.573959         0.789682        -2.204246
 H         2.037194         1.811684        -0.810053
 H         4.258906         0.063568        -1.807314
 H         1.983185        -1.764499        -2.367393
 H         3.623179        -2.116550        -1.490972
 H         0.604014        -2.269434         0.706310
 H         4.085990        -0.758926         1.143784
