19
Iteration:  1058
 C         0.006463         0.229430         0.377915
 C         1.429709        -0.020819        -0.002715
 C         2.030068         0.769706        -1.149257
 C         3.280568        -0.066586        -1.169696
 C         2.725393        -1.517203        -1.511567
 C         2.065716        -1.383828        -0.092339
 O         1.525557        -2.444715         0.546714
 C         3.271136        -0.471161         0.428706
 O         2.445553         0.413446         1.069033
 H        -0.112578        -0.435495         1.138758
 H        -0.242555         1.082687         0.855490
 H        -0.690844        -0.094572        -0.397251
 H         1.493506         0.496754        -2.139167
 H         1.994889         1.845849        -1.029987
 H         4.159240         0.347244        -1.775455
 H         2.231915        -1.529758        -2.487546
 H         3.615362        -2.345543        -1.456337
 H         2.076569        -2.579835         1.356442
 H         4.159742        -0.924270         0.849524
