19
Iteration:  1479charge 0 multiplicity 1
 C        -0.012443         0.385281         0.522890
 C         1.410357         0.131610         0.083121
 C         2.115645         0.795697        -1.225724
 C         3.245067        -0.113961        -1.204176
 C         2.634635        -1.523417        -1.578672
 C         2.068480        -1.442568        -0.144083
 O         1.724647        -2.554231         0.594863
 C         3.238158        -0.554492         0.328337
 O         2.423351         0.350341         1.112090
 H        -0.177399        -0.027646         1.554039
 H        -0.288322         1.467281         0.714081
 H        -0.674778        -0.067881        -0.172432
 H         1.494347         0.751636        -2.167531
 H         2.387046         1.902948        -1.229649
 H         4.182854         0.422473        -1.683253
 H         2.100801        -1.413600        -2.550898
 H         3.189234        -2.494788        -1.492259
 H         0.800192        -2.717263         0.833795
 H         4.164168        -0.871715         0.844756
