19
Iteration:  4100
 C        -0.031705         0.038049         0.288799
 C         1.450602         0.098445         0.021102
 C         2.156965         0.829791        -1.250659
 C         3.378133        -0.111511        -1.072600
 C         2.784345        -1.520758        -1.446706
 C         2.133219        -1.403326        -0.148070
 O         1.442586        -2.436065         0.626480
 C         3.286199        -0.447159         0.400150
 O         2.274708         0.484653         1.132510
 H        -0.163227        -0.606820         1.106807
 H        -0.251290         1.109076         0.526737
 H        -0.587675         0.043409        -0.712208
 H         1.564323         0.677446        -2.144266
 H         2.453314         1.843970        -1.043263
 H         4.323625        -0.039645        -1.533923
 H         2.186540        -1.565397        -2.325976
 H         3.395561        -2.404568        -1.600803
 H         1.603460        -3.267606         0.212756
 H         4.034350        -0.527011         1.215751
