19
Iteration:  1625
 C        -0.027760         0.397449         0.549693
 C         1.401666         0.065317         0.173331
 C         2.010495         0.760858        -1.164198
 C         3.272468        -0.122952        -1.242592
 C         2.617094        -1.525401        -1.565282
 C         2.071611        -1.416041        -0.202079
 O         1.633739        -2.485785         0.522055
 C         3.276126        -0.535840         0.303128
 O         2.516280         0.308955         1.098160
 H        -0.456819        -0.130348         1.383017
 H        -0.045288         1.424205         0.819059
 H        -0.645123         0.151581        -0.357421
 H         1.673909         0.890564        -2.219533
 H         2.306391         1.760234        -0.971734
 H         4.135148         0.302397        -1.689130
 H         2.011798        -1.767712        -2.470040
 H         3.300092        -2.332224        -1.552092
 H         1.564765        -2.330646         1.495482
 H         4.233029        -0.793620         0.752063
