19
Iteration:  4072
 C        -0.125096         0.124406         0.275905
 C         1.352119         0.016993        -0.042700
 C         2.154390         0.794030        -1.170816
 C         3.362329        -0.102969        -1.111823
 C         2.810510        -1.437148        -1.438162
 C         2.134073        -1.343475        -0.115919
 O         1.467445        -2.373548         0.595547
 C         3.282115        -0.530975         0.466251
 O         2.376510         0.387318         1.050605
 H        -0.361911        -0.162797         1.332121
 H        -0.342073         1.222585         0.150777
 H        -0.690073        -0.578910        -0.419120
 H         1.620300         0.611836        -2.132355
 H         2.425980         1.863644        -0.823406
 H         4.316095         0.160716        -1.645014
 H         2.180490        -1.510196        -2.376173
 H         3.587190        -2.287662        -1.461367
 H         2.076537        -3.149447         0.754273
 H         3.968023        -0.799066         1.270307
