19
Iteration:   886charge 0 multiplicity 1
 C        -0.030500         0.165542         0.415626
 C         1.357568         0.053561        -0.071402
 C         2.083801         0.798703        -1.263839
 C         3.373930        -0.085820        -1.133033
 C         2.766522        -1.479751        -1.471406
 C         2.134883        -1.373594        -0.062810
 O         1.552526        -2.444681         0.665575
 C         3.257875        -0.494295         0.364250
 O         2.321366         0.371562         1.070099
 H        -0.217426        -0.555914         1.208573
 H        -0.257816         1.273530         0.570581
 H        -0.858476        -0.082162        -0.449230
 H         1.446999         0.993841        -2.110936
 H         2.341804         1.768999        -0.901547
 H         4.366854         0.296059        -1.629523
 H         2.057590        -1.490707        -2.331611
 H         3.529409        -2.228771        -1.435350
 H         2.113063        -3.181544         0.486600
 H         4.097448        -0.799899         0.838483
