19
Iteration:  2284charge 0 multiplicity 1
 C        -0.033366         0.250148         0.388177
 C         1.450194         0.091305         0.128379
 C         2.002293         0.676874        -1.210522
 C         3.286719        -0.056334        -1.220433
 C         2.776966        -1.525654        -1.465494
 C         1.998394        -1.334016        -0.101039
 O         1.594846        -2.506243         0.544109
 C         3.331255        -0.516674         0.352136
 O         2.458118         0.382192         1.141112
 H        -0.163615        -0.163682         1.393954
 H        -0.264960         1.357143         0.308873
 H        -0.632075        -0.267806        -0.297086
 H         1.373503         0.636718        -2.080223
 H         2.043433         1.811038        -1.281627
 H         4.263597         0.285177        -1.820215
 H         2.122435        -1.503262        -2.407853
 H         3.616291        -2.196560        -1.448941
 H         0.672550        -2.439275         0.787530
 H         4.314279        -0.733134         0.774553
