19
Iteration:  4056charge 0 multiplicity 1
 C        -0.091743         0.220774         0.261831
 C         1.453338         0.045642         0.052558
 C         2.053017         0.779849        -1.173649
 C         3.421507        -0.062320        -1.120630
 C         2.860512        -1.553705        -1.519212
 C         2.115658        -1.427922        -0.119573
 O         1.427118        -2.434950         0.582471
 C         3.262172        -0.471788         0.397617
 O         2.325439         0.412602         1.164332
 H        -0.320487         0.028768         1.304301
 H        -0.621752         1.131874        -0.115306
 H        -0.608216        -0.511174        -0.423586
 H         1.653697         0.760340        -2.184930
 H         2.109546         1.791526        -0.930570
 H         4.377466         0.422518        -1.313575
 H         2.397968        -1.707475        -2.482173
 H         3.626386        -2.321698        -1.481967
 H         2.123912        -2.894848         1.014485
 H         4.253301        -0.871019         0.664189
