19
Iteration:   110
 C        -0.091724         0.140214         0.299403
 C         1.404997         0.036891         0.026256
 C         2.097184         0.774759        -1.207613
 C         3.375486        -0.077764        -1.103362
 C         2.799405        -1.452121        -1.470999
 C         2.039837        -1.388206        -0.081332
 O         1.715385        -2.540317         0.609898
 C         3.204962        -0.436421         0.395252
 O         2.323799         0.456885         1.088844
 H        -0.393639        -0.509702         1.128934
 H        -0.383305         1.160911         0.532356
 H        -0.584966         0.000440        -0.625701
 H         1.635761         0.677801        -2.113595
 H         2.339828         1.792034        -0.977915
 H         4.314101         0.274023        -1.597712
 H         2.167102        -1.415527        -2.386113
 H         3.333610        -2.374218        -1.387727
 H         0.829448        -2.826985         0.427715
 H         4.095399        -0.776618         0.876156
