19
Iteration:    37
 C        -0.053287         0.143507         0.405485
 C         1.395375         0.110135         0.044088
 C         2.028880         0.768209        -1.226672
 C         3.331892        -0.132206        -1.144514
 C         2.829540        -1.519019        -1.408365
 C         2.163284        -1.380779        -0.052106
 O         1.652866        -2.559074         0.434721
 C         3.199926        -0.487811         0.534638
 O         2.349987         0.530228         1.000296
 H        -0.224087        -0.304662         1.440745
 H        -0.552631         1.178363         0.431892
 H        -0.603894        -0.292266        -0.444220
 H         1.427725         0.563377        -2.252986
 H         2.230266         1.861703        -0.993198
 H         4.321693         0.311390        -1.672327
 H         2.060213        -1.672919        -2.234197
 H         3.667210        -2.190941        -1.371252
 H         0.718745        -2.456806         0.543034
 H         4.104762        -0.725768         1.100465
