19
Iteration:  1426charge 0 multiplicity 1
 C        -0.007391         0.327543         0.533991
 C         1.466889         0.048964         0.114767
 C         1.989093         0.734926        -1.206777
 C         3.277223        -0.116351        -1.246124
 C         2.707331        -1.507530        -1.522925
 C         2.086291        -1.397289        -0.113827
 O         1.493843        -2.457756         0.500264
 C         3.341265        -0.487758         0.304816
 O         2.488021         0.362815         1.118382
 H        -0.306847        -0.426646         1.250196
 H        -0.364650         1.327868         0.681886
 H        -0.477566         0.100581        -0.383707
 H         1.231828         0.404907        -1.949670
 H         2.037903         1.810534        -1.183891
 H         4.335518         0.124580        -1.705098
 H         2.030797        -1.577766        -2.486640
 H         3.586665        -2.133191        -1.366433
 H         1.614169        -2.547904         1.454251
 H         4.211305        -0.959541         0.761614
