19
Iteration:  3301
 C        -0.060059         0.167263         0.399902
 C         1.393746        -0.011120        -0.041383
 C         2.127935         0.760575        -1.106932
 C         3.380070        -0.086218        -1.151502
 C         2.837045        -1.585356        -1.554368
 C         2.063957        -1.316870        -0.112615
 O         1.498587        -2.405411         0.563328
 C         3.274478        -0.475427         0.382665
 O         2.300018         0.425874         1.077834
 H        -0.314487        -0.647084         1.178921
 H        -0.373679         1.126744         0.741539
 H        -0.669857         0.008812        -0.510120
 H         1.665003         0.856434        -2.088545
 H         2.306803         1.756120        -0.887470
 H         4.355861         0.276374        -1.569664
 H         2.292111        -1.442903        -2.536806
 H         3.461470        -2.399714        -1.395153
 H         2.042573        -2.654981         1.388249
 H         4.177742        -0.804892         0.967983
