19
Iteration:  1301
 C        -0.036109         0.412173         0.541446
 C         1.408886         0.068117         0.006796
 C         2.067217         0.807666        -1.226937
 C         3.321242        -0.090872        -1.206897
 C         2.683490        -1.568059        -1.511183
 C         2.177329        -1.401540        -0.107542
 O         1.581657        -2.513559         0.641936
 C         3.305514        -0.461750         0.349585
 O         2.364114         0.305000         1.057042
 H        -0.101119        -0.129453         1.506644
 H        -0.161496         1.528579         0.617207
 H        -0.858828        -0.010352        -0.050270
 H         1.364146         0.509112        -2.052760
 H         2.205686         1.930461        -0.980248
 H         4.159723         0.343127        -1.649387
 H         2.040240        -1.490806        -2.397867
 H         3.393153        -2.465356        -1.806894
 H         1.443334        -3.289347         0.011929
 H         4.190418        -0.944099         0.821289
