19
Iteration:  2241charge 0 multiplicity 1
 C         0.064700         0.225735         0.454489
 C         1.403621         0.065454        -0.033847
 C         2.081011         0.822462        -1.209996
 C         3.291441        -0.152535        -1.185472
 C         2.708212        -1.460982        -1.523469
 C         2.107797        -1.407182        -0.124185
 O         1.553092        -2.476683         0.703403
 C         3.304150        -0.502908         0.344422
 O         2.344123         0.409911         1.070016
 H        -0.010833        -0.377655         1.325751
 H        -0.262629         1.276024         0.590361
 H        -0.601385        -0.278415        -0.188033
 H         1.472224         0.928305        -2.102402
 H         2.276743         1.872507        -0.805449
 H         4.253114         0.241555        -1.721043
 H         2.059203        -1.475039        -2.462132
 H         3.452367        -2.237458        -1.370486
 H         1.312849        -3.158024         0.098267
 H         4.096799        -0.967010         0.942758
