19
Iteration:   490
 C        -0.002001         0.232728         0.437798
 C         1.401718        -0.041877        -0.042143
 C         1.982661         0.739770        -1.231438
 C         3.360472        -0.027223        -1.167490
 C         2.803709        -1.452609        -1.482619
 C         2.175137        -1.373618        -0.137322
 O         1.579674        -2.512538         0.550653
 C         3.252435        -0.518206         0.424575
 O         2.320378         0.384465         1.098666
 H        -0.019349        -0.255459         1.437495
 H        -0.070437         1.309319         0.638647
 H        -0.821066         0.122734        -0.219188
 H         1.448912         0.500871        -2.192272
 H         2.092863         1.886981        -1.283887
 H         4.190044         0.356332        -1.573845
 H         2.121506        -1.649959        -2.283926
 H         3.573526        -2.285912        -1.540067
 H         1.144883        -2.062502         1.262217
 H         4.185216        -0.754248         1.085949
