19
Iteration:  1145charge 0 multiplicity 1
 C        -0.102937         0.363554         0.398022
 C         1.406743         0.027378         0.109580
 C         1.966886         0.752157        -1.217927
 C         3.348641        -0.089853        -1.244006
 C         2.729218        -1.501216        -1.528522
 C         2.180104        -1.444247        -0.086052
 O         1.521968        -2.523870         0.623342
 C         3.331331        -0.469352         0.367378
 O         2.463625         0.396420         1.119534
 H        -0.172461        -0.218337         1.261383
 H        -0.182413         1.383275         0.586588
 H        -0.922023        -0.009429        -0.283737
 H         1.299667         0.593286        -2.183284
 H         2.013535         1.835797        -1.100706
 H         4.283096         0.355703        -1.744770
 H         2.081949        -1.322569        -2.345404
 H         3.453686        -2.266339        -1.461620
 H         1.800062        -3.348073         0.254280
 H         4.193356        -0.791805         0.897754
