19
Iteration:  1704
 C         0.073088         0.259968         0.610859
 C         1.455667         0.081056         0.104568
 C         1.970169         0.788749        -1.193722
 C         3.236894        -0.097712        -1.259730
 C         2.763922        -1.523459        -1.578111
 C         2.046473        -1.348134        -0.215390
 O         1.438990        -2.432780         0.551394
 C         3.312405        -0.536369         0.308019
 O         2.513039         0.318655         1.106544
 H        -0.065937        -0.305200         1.546639
 H        -0.215370         1.309547         0.621105
 H        -0.625562        -0.197875        -0.069527
 H         1.408458         0.475387        -2.042982
 H         2.155783         1.831800        -0.935910
 H         4.182666         0.274204        -1.614795
 H         2.120816        -1.725217        -2.513104
 H         3.713425        -2.115100        -1.477391
 H         1.513233        -2.209552         1.495294
 H         4.210000        -1.167376         0.481302
