19
Iteration:  1730
 C         0.067605         0.217137         0.615493
 C         1.437312         0.043401         0.031185
 C         2.030527         0.803213        -1.193076
 C         3.291796        -0.089962        -1.255718
 C         2.647832        -1.534800        -1.601849
 C         2.080603        -1.359743        -0.168766
 O         1.425413        -2.420092         0.554785
 C         3.315246        -0.518587         0.414721
 O         2.507797         0.359402         1.054855
 H        -0.028812        -0.486343         1.458753
 H        -0.211488         1.264695         0.855638
 H        -0.689163        -0.034037        -0.173358
 H         1.428025         0.634263        -2.087230
 H         2.165011         1.854341        -0.851197
 H         4.224152         0.410160        -1.710547
 H         2.001698        -1.549175        -2.506489
 H         3.423179        -2.398125        -1.518962
 H         1.956828        -2.718166         1.299818
 H         4.280213        -0.899221         0.710369
