19
Iteration:  3173
 C        -0.010895         0.093824         0.359265
 C         1.412760         0.070792         0.001063
 C         2.023786         0.778570        -1.218703
 C         3.361623        -0.110304        -1.116297
 C         2.837507        -1.510320        -1.507016
 C         2.194015        -1.413012        -0.069117
 O         1.397708        -2.353184         0.577771
 C         3.273565        -0.445104         0.459530
 O         2.339122         0.424547         1.062153
 H        -0.207351        -0.708366         1.155544
 H        -0.348127         0.989070         0.854743
 H        -0.628888        -0.046577        -0.487586
 H         1.791388         0.415312        -2.190349
 H         2.237655         1.815149        -0.959661
 H         4.302907         0.346305        -1.582933
 H         2.263051        -1.588977        -2.369451
 H         3.704976        -2.222393        -1.655124
 H         1.668607        -3.237645         0.569436
 H         4.243940        -0.633129         0.866278
