19
Iteration:  1814
 C         0.019765         0.328268         0.574943
 C         1.444009         0.020556         0.013630
 C         1.990990         0.777704        -1.158943
 C         3.255441        -0.089676        -1.236298
 C         2.706785        -1.509593        -1.549366
 C         2.142899        -1.443401        -0.148950
 O         1.570986        -2.407991         0.652395
 C         3.307903        -0.550946         0.285669
 O         2.422371         0.334072         1.115731
 H        -0.375188        -0.160050         1.517308
 H         0.129084         1.421656         0.889456
 H        -0.820693         0.202026        -0.139878
 H         1.420342         0.801202        -2.120246
 H         2.156706         1.912274        -1.081067
 H         4.177769         0.111386        -1.901036
 H         2.149627        -1.462801        -2.520512
 H         3.496298        -2.214776        -1.756032
 H         1.020290        -3.025858         0.131945
 H         4.277958        -0.966045         0.671687
