19
Iteration:  4593
 C        -0.024804         0.213634         0.364251
 C         1.404476        -0.001647        -0.007708
 C         2.124853         0.769918        -1.142113
 C         3.383040        -0.111683        -1.144390
 C         2.817737        -1.513314        -1.484081
 C         2.102404        -1.388889        -0.146520
 O         1.431583        -2.419714         0.502899
 C         3.243716        -0.493628         0.407306
 O         2.363292         0.382378         1.097991
 H        -0.353105        -0.750919         0.810796
 H        -0.025429         1.075950         1.079369
 H        -0.650466         0.438885        -0.466536
 H         1.497775         0.614277        -2.009277
 H         2.267215         1.814964        -0.920711
 H         4.391450         0.270081        -1.416798
 H         2.348461        -1.651109        -2.432005
 H         3.550468        -2.261063        -1.641844
 H         1.401991        -2.114727         1.476724
 H         4.166266        -0.700678         1.079325
