19
Iteration:  2804
 C        -0.018215         0.206383         0.346133
 C         1.424866         0.049182        -0.005310
 C         2.098845         0.728741        -1.230330
 C         3.401607        -0.084080        -1.121339
 C         2.701852        -1.487115        -1.498275
 C         2.047318        -1.416216        -0.154433
 O         1.611992        -2.551283         0.566425
 C         3.202027        -0.461098         0.424272
 O         2.324378         0.479771         1.092273
 H        -0.268469        -0.404508         1.244248
 H        -0.162538         1.280369         0.764218
 H        -0.667011         0.014647        -0.487238
 H         1.552817         0.818129        -2.149844
 H         2.159790         1.798271        -0.892039
 H         4.449140         0.061713        -1.296195
 H         1.976216        -1.347416        -2.272724
 H         3.403674        -2.367332        -1.580760
 H         2.133447        -2.685417         1.426861
 H         4.072799        -0.622032         0.910015
