19
Iteration:  3114charge 0 multiplicity 1
 C        -0.084951         0.309820         0.337530
 C         1.374509         0.051696        -0.012200
 C         2.089720         0.765936        -1.191029
 C         3.415062        -0.103430        -1.156076
 C         2.783877        -1.491474        -1.511486
 C         2.131198        -1.436508        -0.110021
 O         1.642474        -2.572375         0.568558
 C         3.189580        -0.451782         0.445754
 O         2.287843         0.382635         1.115151
 H        -0.393176        -0.309902         1.115382
 H        -0.169240         1.356580         0.614247
 H        -0.690717         0.119211        -0.578804
 H         1.677035         0.745112        -2.193324
 H         2.097372         1.821057        -1.167295
 H         4.327721         0.146028        -1.631331
 H         2.044786        -1.363411        -2.375586
 H         3.479631        -2.279735        -1.634736
 H         1.800785        -2.330835         1.545254
 H         4.086843        -0.773410         1.078180
