19
Iteration:   509charge 0 multiplicity 1
 C        -0.027247         0.230827         0.530577
 C         1.343636         0.100666         0.011210
 C         2.117629         0.799524        -1.197421
 C         3.265557        -0.144944        -1.176619
 C         2.882747        -1.563712        -1.526418
 C         2.144000        -1.434520        -0.142649
 O         1.586897        -2.509892         0.527992
 C         3.209697        -0.410952         0.382345
 O         2.289092         0.421551         1.032604
 H        -0.065368        -0.421908         1.407738
 H        -0.369401         1.220305         0.786843
 H        -0.647028        -0.090255        -0.367997
 H         1.634485         0.968913        -2.119498
 H         2.171770         1.730285        -0.817066
 H         4.185584         0.230754        -1.624513
 H         2.424091        -1.739979        -2.494079
 H         3.627408        -2.384628        -1.335850
 H         1.662857        -2.422765         1.453811
 H         4.057823        -0.766810         0.900754
