19
Iteration:  3804
 C        -0.050060         0.087953         0.300718
 C         1.360584         0.031414        -0.000277
 C         2.189537         0.756381        -1.176628
 C         3.417021        -0.070489        -1.084839
 C         2.792089        -1.507291        -1.424422
 C         2.080784        -1.352086        -0.139015
 O         1.427415        -2.453993         0.606035
 C         3.276404        -0.386778         0.439168
 O         2.311599         0.447633         1.069508
 H        -0.207441        -0.436109         1.310286
 H        -0.245069         1.146620         0.345837
 H        -0.660270        -0.518211        -0.370362
 H         1.754241         0.717677        -2.206468
 H         2.489012         1.768470        -1.092459
 H         4.336441         0.263425        -1.709314
 H         2.157631        -1.456215        -2.403627
 H         3.461059        -2.352998        -1.418016
 H         1.935846        -3.276730         0.245445
 H         4.281863        -0.621387         0.862910
