19
Iteration:   456charge 0 multiplicity 1
 C        -0.075652         0.247860         0.303779
 C         1.389293         0.071776         0.146317
 C         1.992208         0.767945        -1.096605
 C         3.234759        -0.117542        -1.263465
 C         2.848777        -1.504755        -1.531054
 C         2.160796        -1.425450        -0.127893
 O         1.601089        -2.567862         0.518683
 C         3.300049        -0.456380         0.411926
 O         2.445000         0.473164         1.127772
 H        -0.423624        -0.320247         1.186127
 H        -0.245758         1.285989         0.507411
 H        -0.613543        -0.163200        -0.560169
 H         1.304780         0.598622        -1.939103
 H         2.159514         1.813717        -0.955821
 H         4.037007         0.290038        -1.726206
 H         2.231721        -1.804739        -2.330803
 H         3.507806        -2.320252        -1.154176
 H         0.801383        -2.311876         0.917652
 H         4.245138        -0.721436         0.935422
