19
Iteration:  1086charge 0 multiplicity 1
 C        -0.040283         0.213395         0.510968
 C         1.398530         0.054154         0.057938
 C         2.130084         0.794115        -1.258510
 C         3.304528        -0.099602        -1.163829
 C         2.770744        -1.533152        -1.515220
 C         2.163254        -1.447062        -0.111046
 O         1.559860        -2.484758         0.554554
 C         3.253646        -0.441319         0.333078
 O         2.341238         0.410141         1.049836
 H        -0.125454        -0.455732         1.516285
 H        -0.447672         1.155320         1.057388
 H        -0.719999        -0.231368        -0.220306
 H         1.678449         0.675552        -2.223791
 H         2.355126         1.848619        -0.983491
 H         4.226815         0.273066        -1.537342
 H         2.120582        -1.612843        -2.447551
 H         3.462129        -2.275358        -1.780726
 H         0.952122        -2.102364         1.253468
 H         4.251486        -0.735575         0.790500
