19
Iteration:  1536charge 0 multiplicity 1
 C         0.068172         0.211378         0.503924
 C         1.465381         0.130314         0.088581
 C         1.982210         0.878641        -1.182519
 C         3.261768        -0.168856        -1.280424
 C         2.668008        -1.525608        -1.525325
 C         2.196174        -1.463499        -0.081391
 O         1.398732        -2.461012         0.608374
 C         3.302667        -0.498279         0.335057
 O         2.517150         0.442860         1.111336
 H        -0.104489        -0.491106         1.300744
 H        -0.107265         1.206133         0.915173
 H        -0.738529        -0.070046        -0.208407
 H         1.432089         0.677704        -2.156727
 H         2.229823         1.931026        -0.964732
 H         4.212441         0.080357        -1.972077
 H         2.049532        -1.547969        -2.533656
 H         3.314501        -2.403434        -1.683983
 H         1.377469        -3.281514         0.078786
 H         4.283773        -0.738880         0.764892
