19
Iteration:  2398
 C        -0.007325         0.186572         0.376116
 C         1.458374         0.031704         0.023040
 C         2.038652         0.780291        -1.153059
 C         3.269479        -0.088749        -1.185869
 C         2.745697        -1.535063        -1.479040
 C         2.130693        -1.422175        -0.074088
 O         1.575727        -2.486913         0.591412
 C         3.270658        -0.429149         0.421870
 O         2.418741         0.449459         1.019489
 H        -0.222880        -0.592191         1.061456
 H        -0.251766         1.075435         0.817971
 H        -0.654293         0.212814        -0.512498
 H         1.466836         0.675814        -2.075810
 H         2.266306         1.772674        -0.864650
 H         4.188185         0.184548        -1.558548
 H         2.106924        -1.772220        -2.305605
 H         3.528785        -2.311825        -1.644279
 H         0.597006        -2.336958         0.445674
 H         4.131429        -0.754921         1.056615
