19
Iteration:  1552charge 0 multiplicity 1
 C         0.067480         0.165786         0.582815
 C         1.478697         0.085750         0.069964
 C         2.077899         0.739126        -1.209186
 C         3.246793        -0.123498        -1.234373
 C         2.602041        -1.537137        -1.486034
 C         2.043012        -1.301894        -0.119450
 O         1.459396        -2.395367         0.514200
 C         3.318587        -0.556891         0.397788
 O         2.524793         0.454351         1.018491
 H        -0.240563        -0.631001         1.317253
 H        -0.190782         1.120911         1.088139
 H        -0.509276         0.001622        -0.335510
 H         1.377435         0.815385        -1.996954
 H         2.291941         1.805314        -0.983790
 H         4.099042         0.203924        -1.674734
 H         1.776436        -1.793809        -2.218089
 H         3.430861        -2.286635        -1.563544
 H         1.929092        -3.146170         0.184916
 H         4.210126        -0.845286         0.979551
