19
Iteration:  3266
 C        -0.017576         0.322906         0.313157
 C         1.413016         0.062203         0.008688
 C         2.069261         0.806769        -1.250528
 C         3.345280        -0.051612        -1.111457
 C         2.798117        -1.522192        -1.503200
 C         2.109461        -1.421306        -0.063203
 O         1.529295        -2.555317         0.595086
 C         3.265759        -0.472432         0.387076
 O         2.306668         0.372570         1.146968
 H        -0.409360        -0.191598         1.180207
 H        -0.272024         1.443935         0.372409
 H        -0.629305        -0.200359        -0.515699
 H         1.501488         0.426622        -2.076606
 H         2.014418         1.824369        -0.943459
 H         4.157325         0.525629        -1.456541
 H         2.350855        -1.546127        -2.522284
 H         3.446673        -2.348867        -1.544717
 H         2.332307        -3.179112         0.726244
 H         4.261576        -0.689014         0.887742
