19
Iteration:  1617charge 0 multiplicity 1
 C         0.007594         0.356188         0.522878
 C         1.441836         0.013177         0.103892
 C         1.988994         0.779830        -1.176413
 C         3.256607        -0.107776        -1.226105
 C         2.677234        -1.538035        -1.547356
 C         2.041596        -1.353409        -0.172650
 O         1.566263        -2.494099         0.538649
 C         3.330398        -0.521925         0.278188
 O         2.475715         0.275133         1.101396
 H        -0.294255        -0.087291         1.499609
 H         0.140138         1.419769         0.827438
 H        -0.676019         0.401311        -0.296651
 H         1.352103         0.871628        -2.077962
 H         2.182484         1.822307        -0.834383
 H         4.124693         0.229679        -1.674732
 H         1.838510        -1.620837        -2.370106
 H         3.485789        -2.324658        -1.444165
 H         1.871745        -2.061328         1.404911
 H         4.307247        -0.862842         0.669905
