19
Iteration:  4173charge 0 multiplicity 1
 C        -0.108735         0.350219         0.373626
 C         1.329877         0.035833        -0.098907
 C         2.108303         0.772724        -1.270074
 C         3.403080        -0.135885        -1.104490
 C         2.891118        -1.524652        -1.423107
 C         2.183980        -1.415515        -0.065085
 O         1.545393        -2.520992         0.534612
 C         3.209465        -0.469678         0.514303
 O         2.266320         0.420390         1.072691
 H        -0.469583        -0.509403         1.040756
 H         0.051153         1.271717         0.899886
 H        -0.770751         0.603701        -0.383466
 H         1.484602         0.552603        -2.232253
 H         2.182969         1.884972        -1.130059
 H         4.287637         0.312549        -1.686142
 H         2.162402        -1.557485        -2.332939
 H         3.633437        -2.320710        -1.528331
 H         2.150585        -3.260289         0.668096
 H         4.024020        -0.889970         1.194109
