19
Iteration:  4555charge 0 multiplicity 1
 C        -0.027740         0.075018         0.338341
 C         1.459420         0.141407        -0.023054
 C         2.225413         0.788651        -1.172840
 C         3.394059        -0.135544        -1.135645
 C         2.740633        -1.514382        -1.554894
 C         2.061968        -1.391607        -0.109082
 O         1.385755        -2.372871         0.593639
 C         3.224858        -0.445307         0.394272
 O         2.390429         0.390847         1.150595
 H        -0.249134        -0.500342         1.243841
 H        -0.577782         0.997247         0.487396
 H        -0.563059        -0.441481        -0.554844
 H         1.552296         0.777482        -2.063595
 H         2.340432         1.888958        -0.873963
 H         4.384188         0.141025        -1.517388
 H         2.100618        -1.351051        -2.482887
 H         3.560976        -2.234914        -1.342138
 H         1.952697        -3.203990         0.702427
 H         4.066077        -0.737723         0.991425
