19
Iteration:  4771charge 0 multiplicity 1
 C        -0.070706         0.305729         0.457673
 C         1.399797         0.051445        -0.018631
 C         2.127991         0.849415        -1.155353
 C         3.343047        -0.125421        -1.057312
 C         2.811620        -1.544163        -1.551117
 C         2.107416        -1.418520        -0.104427
 O         1.464892        -2.496829         0.446769
 C         3.216363        -0.529093         0.384979
 O         2.454242         0.351557         1.094297
 H        -0.053499         0.089237         1.531202
 H        -0.376466         1.344770         0.329191
 H        -0.778107        -0.403147        -0.087274
 H         1.596403         0.951121        -2.112985
 H         2.378664         1.905926        -0.867250
 H         4.267093         0.153222        -1.585806
 H         2.348896        -1.383200        -2.596194
 H         3.505546        -2.467093        -1.564613
 H         1.022687        -2.208870         1.297627
 H         4.091998        -0.903350         0.865081
