19
Iteration:   164
 C        -0.047963         0.192796         0.345624
 C         1.396047         0.044725         0.050813
 C         2.019452         0.664955        -1.221568
 C         3.408550        -0.051892        -1.118208
 C         2.836037        -1.413122        -1.536735
 C         2.065907        -1.344029        -0.125922
 O         1.563383        -2.417233         0.644130
 C         3.278806        -0.451560         0.398232
 O         2.321553         0.367787         1.120176
 H        -0.602785        -0.504819         1.015719
 H        -0.347087         1.190587         0.675212
 H        -0.629573         0.054701        -0.572564
 H         1.574820         0.365876        -2.088122
 H         1.954598         1.738482        -1.158071
 H         4.318322         0.172216        -1.631974
 H         2.424590        -1.779262        -2.494014
 H         3.615371        -2.163989        -1.337089
 H         1.910596        -3.239961         0.242813
 H         4.073307        -0.901657         0.962711
