19
Iteration:  4647charge 0 multiplicity 1
 C        -0.032315         0.515209         0.376161
 C         1.325277         0.035334         0.036998
 C         2.040551         0.726572        -1.170941
 C         3.379473        -0.124651        -1.054547
 C         2.793400        -1.567471        -1.532845
 C         1.986149        -1.453179        -0.146365
 O         1.711087        -2.635452         0.554336
 C         3.220655        -0.512649         0.405047
 O         2.365313         0.485670         1.100170
 H        -0.710137        -0.310653         0.716844
 H         0.141570         1.305234         1.173407
 H        -0.370987         0.905394        -0.573108
 H         1.596859         0.584720        -2.110559
 H         2.242462         1.696842        -0.928877
 H         4.305250         0.411276        -1.389196
 H         2.401191        -1.503520        -2.633504
 H         3.607811        -2.261933        -1.415362
 H         0.929180        -3.008264         0.034182
 H         4.013069        -1.023665         1.038595
