19
Iteration:    23charge 0 multiplicity 1
 C        -0.085892         0.142113         0.389070
 C         1.388090         0.128500         0.021785
 C         2.090507         0.660419        -1.302612
 C         3.392197        -0.101523        -1.102793
 C         2.738116        -1.478882        -1.447960
 C         2.065494        -1.305794        -0.108833
 O         1.687631        -2.589049         0.442179
 C         3.250326        -0.430598         0.458329
 O         2.374650         0.548882         1.169255
 H        -0.215112        -0.522293         1.265497
 H        -0.589922         1.073592         0.587810
 H        -0.627590        -0.357294        -0.412825
 H         1.528892         0.308678        -2.197464
 H         2.087697         1.743120        -1.387316
 H         4.410441         0.178741        -1.433700
 H         2.199990        -1.485987        -2.413204
 H         3.294419        -2.401176        -1.373296
 H         0.804350        -2.612963         0.917106
 H         3.989999        -0.810202         1.121240
