19
Iteration:  2727
 C        -0.059798         0.203866         0.478462
 C         1.333257         0.051753        -0.011840
 C         2.040801         0.725050        -1.225271
 C         3.383508        -0.080572        -1.138840
 C         2.823727        -1.506265        -1.529125
 C         2.193683        -1.364201        -0.063465
 O         1.504522        -2.407952         0.568983
 C         3.281593        -0.497849         0.445753
 O         2.311637         0.433398         0.987463
 H        -0.091470        -0.492900         1.366603
 H        -0.392392         1.222431         0.739910
 H        -0.646876        -0.037872        -0.414639
 H         1.765851         0.374072        -2.208833
 H         2.252085         1.797800        -1.041374
 H         4.418829         0.355008        -1.313498
 H         2.151769        -1.631433        -2.349047
 H         3.458133        -2.495815        -1.480629
 H         1.927196        -3.283467         0.561116
 H         4.064872        -0.752600         1.106880
