19
Iteration:  2255charge 0 multiplicity 1
 C        -0.016622         0.214606         0.423028
 C         1.449717         0.010929         0.054610
 C         2.029444         0.783305        -1.146188
 C         3.276248        -0.054629        -1.159136
 C         2.747348        -1.577154        -1.540162
 C         2.109648        -1.435516        -0.121702
 O         1.563999        -2.411173         0.625448
 C         3.246786        -0.514718         0.403278
 O         2.450380         0.429062         1.046429
 H        -0.194121        -0.057414         1.447003
 H        -0.156806         1.314451         0.400197
 H        -0.783392        -0.236483        -0.315386
 H         1.542688         0.725236        -2.157799
 H         2.236102         1.864241        -0.898490
 H         4.235525         0.314069        -1.586306
 H         1.959877        -1.621783        -2.315031
 H         3.541785        -2.262042        -1.951226
 H         0.893364        -3.021248         0.161144
 H         4.324033        -0.593149         0.849961
