19
Iteration:  1049
 C        -0.013887         0.226710         0.358602
 C         1.431436         0.066361         0.068357
 C         2.019331         0.717805        -1.165312
 C         3.256238        -0.069174        -1.159440
 C         2.742398        -1.518349        -1.477744
 C         2.094885        -1.380558        -0.104130
 O         1.524805        -2.444111         0.549716
 C         3.292007        -0.471796         0.300641
 O         2.437949         0.390039         1.120074
 H        -0.266879        -0.535386         1.059294
 H        -0.245592         1.225431         0.660756
 H        -0.679613         0.035779        -0.539126
 H         1.502152         0.599987        -2.103457
 H         2.074392         1.777429        -0.985249
 H         4.191085         0.309611        -1.649968
 H         2.069328        -1.661755        -2.303915
 H         3.606937        -2.273434        -1.241402
 H         2.272535        -2.834562         1.053857
 H         4.134402        -0.792952         0.821677
