19
Iteration:  4691
 C         0.033509         0.311788         0.319095
 C         1.468000         0.010950         0.003627
 C         2.109934         0.826035        -1.159508
 C         3.311200        -0.115731        -1.122436
 C         2.795771        -1.541914        -1.539131
 C         2.094393        -1.370966        -0.135715
 O         1.468525        -2.394254         0.611276
 C         3.233777        -0.517594         0.400177
 O         2.337317         0.331548         1.130300
 H        -0.210767        -0.401272         1.169756
 H        -0.094206         1.376833         0.720033
 H        -0.667575         0.075370        -0.470435
 H         1.556443         0.813764        -2.057322
 H         2.182972         1.732535        -0.668353
 H         4.343199         0.116937        -1.492758
 H         2.057419        -1.653519        -2.476482
 H         3.497476        -2.382879        -1.475881
 H         1.662770        -3.239247         0.101715
 H         4.150460        -0.827515         0.936459
