19
Iteration:  4253
 C        -0.025929         0.052352         0.263796
 C         1.407519        -0.029200         0.005520
 C         2.172044         0.785742        -1.154258
 C         3.470538        -0.092285        -1.130799
 C         2.796580        -1.427717        -1.496773
 C         2.042802        -1.400509        -0.135754
 O         1.335210        -2.344470         0.620977
 C         3.297281        -0.459913         0.390631
 O         2.349352         0.433394         1.121275
 H        -0.139440        -0.080412         1.317367
 H        -0.428214         1.077435         0.066820
 H        -0.459189        -0.876501        -0.249729
 H         1.605298         0.772761        -2.212761
 H         1.997155         1.833499        -0.769111
 H         4.454539         0.261531        -1.377783
 H         2.153892        -1.613488        -2.473389
 H         3.577810        -2.275489        -1.328579
 H         2.005538        -3.050436         0.594371
 H         4.274489        -0.770203         0.991768
