19
Iteration:  1744charge 0 multiplicity 1
 C         0.042278         0.215618         0.565816
 C         1.450618         0.070965         0.105411
 C         2.080209         0.760742        -1.151259
 C         3.280380        -0.196220        -1.244119
 C         2.620573        -1.489091        -1.607716
 C         2.134423        -1.420477        -0.120757
 O         1.454339        -2.447599         0.523004
 C         3.299103        -0.501627         0.282598
 O         2.456996         0.490183         1.124937
 H        -0.252464        -0.520379         1.342682
 H         0.073494         1.226262         0.973150
 H        -0.758646        -0.029947        -0.254038
 H         1.451567         0.838573        -2.145301
 H         2.406477         1.749766        -0.884473
 H         4.162354         0.017973        -1.770388
 H         1.810629        -1.526190        -2.286934
 H         3.277722        -2.215596        -1.926268
 H         2.159191        -2.902854         1.027741
 H         4.129658        -0.759673         0.935855
