19
Iteration:  1098
 C        -0.027386         0.182944         0.538119
 C         1.369086         0.063425        -0.070601
 C         2.064149         0.798720        -1.190236
 C         3.347566        -0.115657        -1.202818
 C         2.741279        -1.566115        -1.512330
 C         2.085426        -1.339224        -0.155176
 O         1.605347        -2.491531         0.569402
 C         3.303026        -0.468615         0.409315
 O         2.395209         0.399838         1.084098
 H        -0.072116        -0.571604         1.458643
 H        -0.175556         1.312978         0.597822
 H        -0.813434        -0.116762        -0.178374
 H         1.445431         0.738292        -2.104814
 H         2.233373         1.882446        -1.020955
 H         4.197441         0.188337        -1.800362
 H         2.067563        -1.633913        -2.402878
 H         3.527539        -2.203991        -1.301240
 H         0.652424        -2.365852         0.821845
 H         4.272292        -0.597677         1.017356
