19
Iteration:  4343charge 0 multiplicity 1
 C        -0.039374         0.381906         0.337369
 C         1.411940         0.117764         0.020866
 C         2.035382         0.711546        -1.216457
 C         3.323251        -0.107266        -1.087512
 C         2.959547        -1.577745        -1.518385
 C         2.089792        -1.450356        -0.119807
 O         1.547293        -2.502542         0.507033
 C         3.179181        -0.508645         0.450449
 O         2.292314         0.426054         1.155918
 H        -0.610412        -0.489280         0.779267
 H        -0.123437         1.333462         0.949599
 H        -0.589088         0.566411        -0.619705
 H         1.439029         0.458544        -2.139230
 H         2.245928         1.824719        -1.262711
 H         4.224803         0.261100        -1.533679
 H         2.264715        -1.652412        -2.347763
 H         3.944503        -2.216606        -1.482475
 H         2.223303        -3.141617         0.900559
 H         3.957959        -0.693156         1.094384
