19
Iteration:  4718
 C        -0.128521         0.149812         0.331300
 C         1.473882         0.049549         0.086143
 C         2.153247         0.832869        -1.179837
 C         3.364376        -0.070618        -1.117648
 C         2.767687        -1.503455        -1.564898
 C         2.115270        -1.368382        -0.091987
 O         1.274454        -2.366507         0.516323
 C         3.317987        -0.560724         0.425077
 O         2.534497         0.405206         1.110084
 H        -0.320578        -0.352374         1.253580
 H        -0.530123         1.128992         0.334612
 H        -0.553257        -0.584569        -0.396791
 H         1.614435         0.563831        -2.128856
 H         2.088201         1.894435        -0.790108
 H         4.290768         0.213144        -1.583136
 H         2.115310        -1.542488        -2.344757
 H         3.456357        -2.366625        -1.494754
 H         1.954048        -3.024924         0.808854
 H         4.106977        -1.052006         1.001984
