19
Iteration:  1237charge 0 multiplicity 1
 C         0.031617         0.200334         0.443990
 C         1.474356        -0.001076         0.115738
 C         2.023843         0.763638        -1.194672
 C         3.207860        -0.073089        -1.299829
 C         2.710694        -1.531760        -1.523933
 C         2.140974        -1.427826        -0.070656
 O         1.514510        -2.456003         0.577009
 C         3.318980        -0.457266         0.379745
 O         2.482944         0.427162         1.114340
 H        -0.308899        -0.530973         1.178631
 H        -0.104631         1.251518         0.688070
 H        -0.616903         0.081696        -0.348339
 H         1.357050         0.669824        -2.047931
 H         2.371811         1.825156        -1.027950
 H         4.034510         0.269866        -1.844948
 H         1.994960        -1.578779        -2.363173
 H         3.555743        -2.293361        -1.426505
 H         0.575233        -2.299152         0.290305
 H         4.225294        -0.777870         0.981651
