19
Iteration:  3316charge 0 multiplicity 1
 C        -0.057786         0.089935         0.364087
 C         1.422061         0.086994         0.046006
 C         2.098097         0.810914        -1.276441
 C         3.397186        -0.115685        -1.120498
 C         2.785525        -1.478951        -1.486155
 C         2.139866        -1.436758        -0.167489
 O         1.422599        -2.435641         0.558051
 C         3.271644        -0.415026         0.393624
 O         2.363840         0.385420         1.130774
 H        -0.309547        -0.694270         1.046928
 H        -0.294090         1.030490         0.903164
 H        -0.661271         0.052607        -0.515920
 H         1.582513         0.544821        -2.207301
 H         2.268334         1.874286        -0.930344
 H         4.354047         0.243795        -1.595847
 H         2.130991        -1.695356        -2.329941
 H         3.711289        -2.218030        -1.531807
 H         1.758161        -2.304506         1.485081
 H         4.126485        -0.692405         0.954677
