19
Iteration:   753charge 0 multiplicity 1
 C        -0.032405         0.199469         0.275267
 C         1.419948         0.005084         0.128452
 C         2.023011         0.788135        -1.188334
 C         3.289340        -0.111438        -1.167996
 C         2.809462        -1.513182        -1.522178
 C         2.044996        -1.366572        -0.148285
 O         1.537268        -2.410240         0.575354
 C         3.244339        -0.506499         0.324384
 O         2.434640         0.457227         1.173008
 H        -0.268310        -0.524225         1.090344
 H        -0.363203         1.164562         0.699812
 H        -0.481896        -0.391568        -0.477924
 H         1.368857         0.402778        -1.964857
 H         2.069805         1.827634        -0.990374
 H         4.172089         0.356776        -1.640718
 H         2.274773        -1.739758        -2.452456
 H         3.654756        -2.223080        -1.293894
 H         2.264839        -2.894210         0.987700
 H         4.104344        -0.827280         0.993556
