19
Iteration:  4817
 C        -0.034216         0.569974         0.377649
 C         1.430314         0.040731         0.018446
 C         2.027716         0.691728        -1.157831
 C         3.310966        -0.075998        -1.106789
 C         2.721380        -1.499969        -1.538930
 C         2.081967        -1.438251        -0.137930
 O         1.654510        -2.608119         0.513772
 C         3.288012        -0.541856         0.411076
 O         2.369076         0.319925         1.199238
 H        -0.492277        -0.029057         1.139446
 H         0.082468         1.581184         0.713401
 H        -0.613317         0.496829        -0.602883
 H         1.587285         0.716842        -2.222519
 H         2.337373         1.801324        -1.017507
 H         4.190837         0.364174        -1.504363
 H         1.892360        -1.700093        -2.346267
 H         3.611617        -2.234067        -1.695426
 H         0.779290        -2.725198         0.170815
 H         4.273058        -0.795114         0.918852
