19
Iteration:  3159charge 0 multiplicity 1
 C        -0.026256         0.094518         0.328185
 C         1.464252        -0.025580         0.017106
 C         2.103490         0.740938        -1.239867
 C         3.351807        -0.013858        -1.179886
 C         2.853120        -1.492264        -1.466606
 C         2.078050        -1.375036        -0.129512
 O         1.350392        -2.425103         0.617388
 C         3.330466        -0.449502         0.389128
 O         2.359112         0.447905         1.125610
 H        -0.343315        -0.676596         0.989848
 H        -0.181465         1.034957         0.751561
 H        -0.545706         0.062841        -0.650113
 H         1.250089         0.762699        -1.943390
 H         2.164859         1.771977        -0.993758
 H         4.261857         0.365965        -1.623371
 H         2.214741        -1.623702        -2.391882
 H         3.577515        -2.207029        -1.205603
 H         2.150368        -3.085308         0.757895
 H         4.167403        -0.682236         1.139740
