19
Iteration:  4741charge 0 multiplicity 1
 C         0.082968         0.106388         0.363304
 C         1.487506         0.079734         0.027749
 C         2.128014         0.805550        -1.171595
 C         3.343068        -0.109722        -1.135207
 C         2.699779        -1.513807        -1.510730
 C         2.094577        -1.334141        -0.064611
 O         1.314324        -2.356501         0.398596
 C         3.263492        -0.504289         0.440425
 O         2.437803         0.385801         1.149682
 H        -0.053217        -0.225211         1.366856
 H        -0.398296         1.032064         0.208644
 H        -0.382344        -0.799859        -0.106408
 H         1.558204         0.494904        -2.099220
 H         2.502987         1.857178        -0.854223
 H         4.143678         0.176452        -1.763779
 H         2.199877        -1.417549        -2.384296
 H         3.393928        -2.365977        -1.473845
 H         1.639083        -2.723431         1.266334
 H         4.097512        -1.009849         1.011645
