19
Iteration:  3386
 C        -0.000072         0.360634         0.409552
 C         1.364086         0.028470        -0.047308
 C         2.056943         0.777197        -1.212749
 C         3.333697        -0.017393        -1.161584
 C         2.792197        -1.495395        -1.464844
 C         2.168563        -1.470680        -0.133378
 O         1.668527        -2.568013         0.548343
 C         3.165320        -0.563093         0.478302
 O         2.302203         0.421194         1.070706
 H        -0.196288        -0.165149         1.354548
 H         0.060098         1.446226         0.611096
 H        -0.737353         0.098092        -0.435097
 H         1.321302         0.515466        -2.040303
 H         2.204256         1.863456        -0.936124
 H         4.330732         0.205065        -1.515885
 H         2.384443        -1.554063        -2.507287
 H         3.612026        -2.272006        -1.428715
 H         0.774352        -2.448213         0.832034
 H         4.083582        -0.947337         1.083368
