19
Iteration:  4179charge 0 multiplicity 1
 C        -0.059665         0.330837         0.393026
 C         1.343996         0.003523        -0.083964
 C         2.127176         0.774489        -1.246766
 C         3.375391        -0.115863        -1.066064
 C         2.859058        -1.552250        -1.488218
 C         2.166258        -1.416352        -0.047665
 O         1.557260        -2.493965         0.514820
 C         3.180009        -0.507189         0.507256
 O         2.265285         0.447646         1.056871
 H        -0.592106        -0.414707         0.960446
 H         0.049979         1.359589         0.847542
 H        -0.731855         0.456242        -0.543106
 H         1.598272         0.634904        -2.147350
 H         2.041080         1.848710        -1.112134
 H         4.295727         0.117630        -1.559292
 H         2.185070        -1.603567        -2.281466
 H         3.665693        -2.310327        -1.385029
 H         2.338925        -3.022114         0.658772
 H         4.010043        -0.698167         1.143955
