19
Iteration:  1652
 C         0.050078         0.345741         0.454490
 C         1.469774         0.154461         0.129531
 C         1.980712         0.836804        -1.166591
 C         3.266313        -0.143679        -1.233338
 C         2.538248        -1.456753        -1.514042
 C         2.044941        -1.415879        -0.159061
 O         1.664401        -2.685470         0.530715
 C         3.287184        -0.555113         0.357811
 O         2.516024         0.426589         1.074555
 H        -0.106255        -0.166380         1.470428
 H         0.027224         1.471558         0.677095
 H        -0.734058        -0.052947        -0.139113
 H         1.523578         0.808034        -2.142885
 H         2.357179         1.894174        -0.866589
 H         4.248887         0.199263        -1.726326
 H         1.730712        -1.507174        -2.298611
 H         3.156605        -2.400578        -1.804537
 H         0.959417        -2.591799         1.224022
 H         4.246659        -0.871688         0.833222
