19
Iteration:  4328charge 0 multiplicity 1
 C        -0.090919         0.437743         0.304965
 C         1.348653         0.063670         0.038087
 C         1.976764         0.685042        -1.170436
 C         3.343732        -0.056458        -1.067637
 C         2.924393        -1.548290        -1.464785
 C         2.279692        -1.487370        -0.136252
 O         1.461642        -2.527389         0.505107
 C         3.234048        -0.486347         0.514567
 O         2.336802         0.437024         1.048049
 H        -0.489784        -0.116604         1.091616
 H        -0.006842         1.379039         0.822991
 H        -0.625302         0.347533        -0.672736
 H         1.440293         0.346147        -2.145360
 H         1.975985         1.785790        -1.075263
 H         4.251715         0.508250        -1.337889
 H         2.460759        -1.741769        -2.478060
 H         3.645442        -2.312044        -1.412402
 H         2.023569        -3.353042         0.488619
 H         4.279925        -0.857857         0.988482
