19
Iteration:  1067charge 0 multiplicity 1
 C         0.006351         0.172349         0.452569
 C         1.391955         0.035120        -0.031852
 C         1.998020         0.782660        -1.194574
 C         3.358677        -0.100497        -1.183158
 C         2.750900        -1.470443        -1.527016
 C         2.128549        -1.366843        -0.155706
 O         1.514869        -2.488292         0.584057
 C         3.264311        -0.538856         0.445939
 O         2.414263         0.448567         1.060777
 H        -0.223637        -0.483531         1.289872
 H        -0.118980         1.212873         0.749500
 H        -0.678711        -0.036671        -0.366323
 H         1.349922         0.610989        -2.134209
 H         2.152937         1.848954        -0.954256
 H         4.251791         0.311984        -1.699886
 H         2.160108        -1.601919        -2.466147
 H         3.466990        -2.281011        -1.639107
 H         1.714543        -2.463996         1.548593
 H         4.207643        -0.810010         1.016585
