19
Iteration:  3439
 C        -0.048453         0.233937         0.334897
 C         1.408406         0.093250         0.035360
 C         2.038112         0.790391        -1.203885
 C         3.275478        -0.039512        -1.144319
 C         2.792259        -1.564822        -1.492408
 C         2.159701        -1.447016        -0.089241
 O         1.546535        -2.530625         0.491073
 C         3.299128        -0.494133         0.447487
 O         2.411014         0.415844         1.139357
 H        -0.308940        -0.031330         1.282447
 H        -0.271164         1.318440         0.170910
 H        -0.545434        -0.202136        -0.559168
 H         1.423611         0.761130        -2.146641
 H         2.299505         1.843348        -0.835543
 H         4.176216         0.218365        -1.647721
 H         2.151812        -1.674308        -2.343989
 H         3.734735        -2.196709        -1.421678
 H         0.725421        -2.413587         0.958991
 H         4.137509        -0.822481         1.142236
