19
Iteration:  2551charge 0 multiplicity 1
 C        -0.067217         0.180008         0.406371
 C         1.388646        -0.008521         0.013433
 C         2.076449         0.732527        -1.213934
 C         3.282304        -0.107104        -1.191229
 C         2.865666        -1.553973        -1.472040
 C         2.086946        -1.358194        -0.159033
 O         1.573350        -2.406358         0.608100
 C         3.345534        -0.464660         0.442711
 O         2.347056         0.420411         1.062796
 H        -0.402613        -0.633897         1.117487
 H        -0.033582         1.035201         1.029761
 H        -0.891062         0.151076        -0.423741
 H         1.548271         0.711726        -2.217116
 H         2.237688         1.790989        -0.971107
 H         4.001680         0.416321        -1.900849
 H         2.411773        -1.666242        -2.446515
 H         3.775849        -2.264504        -1.353089
 H         0.662527        -2.123148         0.743038
 H         4.162497        -0.850447         1.113816
