19
Iteration:  1607
 C         0.113027         0.367937         0.523570
 C         1.420531         0.001726        -0.019561
 C         1.976681         0.810271        -1.137745
 C         3.246419        -0.075658        -1.264985
 C         2.693798        -1.500057        -1.524285
 C         2.103809        -1.412298        -0.138407
 O         1.509969        -2.450762         0.582935
 C         3.332582        -0.558156         0.249147
 O         2.428996         0.293966         1.125997
 H        -0.218971        -0.352976         1.325525
 H         0.203380         1.449031         0.847880
 H        -0.727286         0.310784        -0.137890
 H         1.183010         0.596496        -1.829814
 H         2.112476         1.863895        -0.771375
 H         4.091642         0.243824        -1.830581
 H         2.109509        -1.616833        -2.529974
 H         3.493767        -2.316225        -1.598732
 H         1.776095        -2.473967         1.545188
 H         4.244889        -0.971255         0.718606
