19
Iteration:  3048
 C         0.021227         0.245062         0.380064
 C         1.411972         0.002011         0.035202
 C         1.972864         0.728421        -1.200583
 C         3.343280        -0.062459        -1.123378
 C         2.878846        -1.494629        -1.413552
 C         2.075958        -1.388263        -0.132295
 O         1.532053        -2.462797         0.557780
 C         3.238651        -0.460173         0.392939
 O         2.422003         0.411148         1.102853
 H        -0.358301        -0.229198         1.230915
 H        -0.128737         1.323112         0.277045
 H        -0.667993        -0.245335        -0.327167
 H         1.438610         0.466719        -2.146590
 H         1.872936         1.812414        -1.144861
 H         4.207499         0.325387        -1.647865
 H         2.370646        -1.802799        -2.405709
 H         3.619538        -2.234923        -1.307415
 H         0.880610        -2.777182        -0.026135
 H         4.127459        -0.814262         1.016376
