19
Iteration:  2590
 C        -0.071716         0.301556         0.321579
 C         1.388572         0.079076         0.009384
 C         1.979854         0.717991        -1.221242
 C         3.305251        -0.040042        -1.099375
 C         2.797154        -1.573320        -1.471520
 C         2.152544        -1.447517        -0.066208
 O         1.602323        -2.569404         0.510786
 C         3.266737        -0.461151         0.435471
 O         2.379526         0.460657         1.083665
 H        -0.450531        -0.342264         1.108109
 H        -0.171252         1.342594         0.773037
 H        -0.650774         0.388189        -0.567865
 H         1.473346         0.566216        -2.174927
 H         2.234462         1.792307        -1.148595
 H         4.128227         0.321084        -1.657031
 H         2.185638        -1.675791        -2.427744
 H         3.575592        -2.303240        -1.402392
 H         1.893915        -2.705141         1.421221
 H         4.184856        -0.732615         1.006473
