19
Iteration:  4225
 C        -0.127760         0.168454         0.225586
 C         1.414617         0.057675         0.051472
 C         2.105740         0.801709        -1.249964
 C         3.314509        -0.060798        -1.182847
 C         2.796736        -1.506193        -1.502476
 C         2.222186        -1.461789        -0.116913
 O         1.432393        -2.329465         0.547611
 C         3.290319        -0.537356         0.558989
 O         2.392409         0.345353         1.158978
 H        -0.423729        -0.377725         1.191415
 H        -0.336103         1.215654        -0.015171
 H        -0.602553        -0.463160        -0.510552
 H         1.504428         0.853084        -2.094115
 H         2.220165         1.858576        -1.073009
 H         4.291209         0.425003        -1.432104
 H         2.113578        -1.741130        -2.224219
 H         3.662955        -2.127324        -1.354525
 H         1.933234        -2.876980         1.091678
 H         4.174349        -0.723970         1.051337
