19
Iteration:   327charge 0 multiplicity 1
 C        -0.002137         0.161385         0.431535
 C         1.368198         0.089658         0.014491
 C         2.051724         0.729857        -1.300453
 C         3.413195        -0.018277        -1.096511
 C         2.724632        -1.462569        -1.453694
 C         2.038526        -1.374920        -0.076132
 O         1.646314        -2.588680         0.612429
 C         3.289750        -0.464626         0.406903
 O         2.351676         0.474823         1.039967
 H        -0.226571        -0.616912         1.203594
 H        -0.294067         1.150636         0.824686
 H        -0.510886        -0.097640        -0.489938
 H         1.527663         0.480436        -2.282022
 H         2.012515         1.870576        -1.159109
 H         4.253690         0.424692        -1.390604
 H         2.250726        -1.386680        -2.404602
 H         3.258436        -2.403417        -1.465319
 H         0.924366        -2.877855        -0.050707
 H         4.170988        -0.811302         1.009398
