19
Iteration:  3994charge 0 multiplicity 1
 C         0.005861         0.284233         0.372722
 C         1.402694         0.133034        -0.006983
 C         2.098466         0.731771        -1.188417
 C         3.319571        -0.140125        -1.121706
 C         2.802457        -1.505985        -1.435241
 C         2.081641        -1.436378        -0.171003
 O         1.618439        -2.609039         0.479274
 C         3.240774        -0.534813         0.493797
 O         2.249934         0.526208         1.070893
 H        -0.219630        -0.270891         1.269971
 H        -0.332946         1.373197         0.482367
 H        -0.573197        -0.322635        -0.436306
 H         1.681556         0.638963        -2.245110
 H         2.301252         1.878012        -0.972990
 H         4.297913         0.072653        -1.432176
 H         2.463648        -1.404098        -2.462339
 H         3.680041        -2.281861        -1.234053
 H         1.149722        -2.240339         1.206583
 H         4.170730        -0.668515         1.039241
