19
Iteration:  1502
 C         0.025334         0.298550         0.497256
 C         1.420020         0.052325         0.095833
 C         1.958924         0.766520        -1.142983
 C         3.288619        -0.157788        -1.200651
 C         2.700218        -1.458951        -1.557314
 C         2.072983        -1.372495        -0.163407
 O         1.646691        -2.387075         0.631837
 C         3.254043        -0.629136         0.293941
 O         2.491433         0.348795         1.078804
 H        -0.194069         0.048555         1.549833
 H         0.008954         1.420150         0.545358
 H        -0.690039        -0.013471        -0.236243
 H         1.446009         0.735799        -2.153582
 H         1.915389         1.856091        -0.900667
 H         4.233336         0.113768        -1.900386
 H         2.072754        -1.548136        -2.540469
 H         3.378764        -2.326882        -1.396741
 H         0.866834        -2.846223         0.197454
 H         4.055750        -0.982534         0.939192
