19
Iteration:  2355
 C        -0.018801         0.217691         0.405601
 C         1.456295         0.140663         0.002004
 C         2.007910         0.745055        -1.189263
 C         3.302733        -0.111439        -1.185375
 C         2.774270        -1.514997        -1.501709
 C         2.132591        -1.395729        -0.117994
 O         1.565420        -2.382488         0.631212
 C         3.224285        -0.574232         0.420409
 O         2.391345         0.389867         1.098315
 H        -0.406132        -0.621172         1.006789
 H        -0.159293         1.124078         0.908327
 H        -0.621875         0.333700        -0.525749
 H         1.348406         0.554198        -2.065294
 H         2.167091         1.790358        -1.260913
 H         4.063538         0.339658        -1.697042
 H         2.060615        -1.563193        -2.283126
 H         3.511370        -2.377878        -1.437086
 H         1.879936        -3.175946         0.188267
 H         4.232437        -0.766636         0.838744
