19
Iteration:  2994
 C        -0.043850         0.102157         0.344596
 C         1.440589         0.078028         0.029119
 C         2.120638         0.820370        -1.191198
 C         3.344355        -0.082801        -1.157373
 C         2.777763        -1.561761        -1.475621
 C         2.094152        -1.373197        -0.077954
 O         1.466050        -2.424298         0.626116
 C         3.274133        -0.509160         0.361123
 O         2.351036         0.465452         1.042243
 H        -0.204279        -0.662677         1.137095
 H        -0.346361         0.970826         0.989743
 H        -0.824211        -0.083575        -0.497019
 H         1.714532         1.032298        -2.217322
 H         2.317765         1.831816        -0.836611
 H         4.275170         0.246218        -1.638208
 H         2.070029        -1.619651        -2.387285
 H         3.504911        -2.296135        -1.313983
 H         2.077816        -3.099515         0.381316
 H         4.176726        -0.820851         1.037804
