19
Iteration:  4977charge 0 multiplicity 1
 C        -0.025830         0.471118         0.429182
 C         1.421063         0.075348         0.014006
 C         2.073140         0.814532        -1.105695
 C         3.305446        -0.087869        -1.128296
 C         2.747699        -1.450294        -1.564123
 C         2.106280        -1.476560        -0.245697
 O         1.527211        -2.557398         0.522610
 C         3.194720        -0.650420         0.369171
 O         2.442449         0.290830         1.185301
 H        -0.196991         0.721972         1.483960
 H        -0.250958         1.508101         0.082067
 H        -0.966125        -0.065146        -0.000471
 H         1.594237         0.764189        -2.208762
 H         2.309966         1.832736        -0.727016
 H         4.295857         0.221833        -1.651896
 H         2.182698        -1.402027        -2.496061
 H         3.499082        -2.177964        -1.808976
 H         1.934193        -2.627930         1.354570
 H         4.145860        -1.040399         0.764631
