19
Iteration:  1379
 C         0.055793         0.156077         0.526775
 C         1.438855         0.049212         0.034032
 C         2.088877         0.764677        -1.121954
 C         3.372680        -0.082478        -1.245950
 C         2.667896        -1.540937        -1.563100
 C         2.107039        -1.406896        -0.127108
 O         1.423323        -2.373996         0.643439
 C         3.281523        -0.525702         0.339213
 O         2.389300         0.446764         0.988056
 H         0.037556        -0.641804         1.310828
 H         0.027129         1.199500         0.930055
 H        -0.761754         0.089970        -0.145738
 H         1.672623         0.836070        -2.142364
 H         2.331524         1.834647        -0.708374
 H         4.146421         0.426415        -1.756332
 H         1.865318        -1.526653        -2.244043
 H         3.425977        -2.381067        -1.634806
 H         1.817238        -3.313073         0.665002
 H         4.212714        -0.815872         0.856642
