19
Iteration:    70charge 0 multiplicity 1
 C        -0.027982         0.229258         0.391099
 C         1.359916        -0.034555         0.032873
 C         1.999122         0.690856        -1.227292
 C         3.373341        -0.019328        -1.198959
 C         3.003920        -1.440593        -1.479680
 C         2.167008        -1.416684        -0.172478
 O         1.527465        -2.442538         0.673716
 C         3.245724        -0.422377         0.339605
 O         2.284586         0.272137         1.136835
 H        -0.425610        -0.092880         1.392575
 H        -0.220714         1.358836         0.302393
 H        -0.690839        -0.221097        -0.360807
 H         1.335742         0.639120        -2.234899
 H         2.035819         1.804623        -0.963983
 H         4.366400         0.551706        -1.572607
 H         2.485442        -1.641374        -2.471878
 H         3.878729        -2.080334        -1.440647
 H         0.534292        -2.244341         0.625726
 H         4.193037        -0.563237         0.880519
