19
Iteration:   379charge 0 multiplicity 1
 C        -0.034890         0.204106         0.372147
 C         1.359827         0.047618         0.016797
 C         2.024206         0.778077        -1.151672
 C         3.311028        -0.007905        -1.162970
 C         2.836867        -1.493528        -1.449712
 C         2.100703        -1.447115        -0.156274
 O         1.488816        -2.421765         0.616195
 C         3.307275        -0.460748         0.316670
 O         2.384628         0.357026         1.096320
 H        -0.281149        -0.444479         1.190904
 H        -0.137625         1.201455         0.697678
 H        -0.700864        -0.170641        -0.470378
 H         1.304841         0.466379        -1.991455
 H         2.060530         1.868454        -1.053260
 H         4.183831         0.325465        -1.712987
 H         2.439827        -1.862846        -2.430917
 H         3.857626        -2.040540        -1.332532
 H         2.159520        -3.180100         0.783682
 H         4.205499        -0.733604         0.842369
