19
Iteration:   854charge 0 multiplicity 1
 C        -0.049020         0.198768         0.328158
 C         1.398199         0.023679         0.071185
 C         1.995927         0.659493        -1.151884
 C         3.297271        -0.086407        -1.195109
 C         2.801984        -1.469985        -1.441539
 C         2.191738        -1.356235        -0.101843
 O         1.506291        -2.421875         0.614938
 C         3.333066        -0.461496         0.403069
 O         2.382808         0.424364         1.077126
 H        -0.390925        -0.489168         1.064267
 H        -0.257539         1.276965         0.514872
 H        -0.506568         0.112421        -0.607653
 H         1.300251         0.522791        -1.986598
 H         2.067299         1.725351        -0.939881
 H         4.200339         0.342874        -1.758730
 H         2.312846        -1.624246        -2.441895
 H         3.575355        -2.178450        -1.488583
 H         1.579149        -3.252293         0.106224
 H         4.198949        -0.731064         0.871772
