19
Iteration:  1055charge 0 multiplicity 1
 C         0.003104         0.236059         0.349936
 C         1.442436         0.000634         0.024574
 C         2.042137         0.741912        -1.143277
 C         3.254036        -0.053771        -1.165774
 C         2.742110        -1.538500        -1.505934
 C         2.059549        -1.406411        -0.068524
 O         1.529038        -2.431436         0.535854
 C         3.270448        -0.451509         0.378473
 O         2.447808         0.399823         1.084519
 H        -0.134677        -0.580604         1.156630
 H        -0.294342         1.221799         0.831142
 H        -0.699640        -0.054793        -0.401084
 H         1.539662         0.529242        -2.160417
 H         1.960476         1.857645        -1.036975
 H         4.109580         0.312731        -1.719625
 H         2.121297        -1.496914        -2.445510
 H         3.542777        -2.223558        -1.298964
 H         2.190478        -2.605154         1.188475
 H         4.201797        -0.959309         0.865278
