19
Iteration:  2579charge 0 multiplicity 1
 C        -0.032322         0.327068         0.332498
 C         1.427511         0.022413         0.042669
 C         1.979160         0.714816        -1.271881
 C         3.273452        -0.044128        -1.101413
 C         2.856717        -1.591379        -1.425782
 C         2.143366        -1.399022        -0.125050
 O         1.563540        -2.552345         0.524092
 C         3.294638        -0.456126         0.401413
 O         2.372195         0.443253         1.117493
 H        -0.417303        -0.552329         0.848562
 H        -0.194145         1.297334         0.909771
 H        -0.623670         0.183180        -0.522977
 H         1.549108         0.304150        -2.170344
 H         1.834104         1.823079        -1.169135
 H         4.142063         0.502619        -1.407847
 H         2.042496        -1.527702        -2.236419
 H         3.561135        -2.276077        -1.740385
 H         1.536596        -2.265463         1.427680
 H         4.225977        -0.796807         0.906147
