19
Iteration:  4668charge 0 multiplicity 1
 C        -0.095128         0.467044         0.402760
 C         1.393286         0.156124        -0.032121
 C         2.137968         0.781157        -1.231157
 C         3.358365        -0.108205        -1.132671
 C         2.792838        -1.495988        -1.487301
 C         2.166414        -1.476455        -0.146547
 O         1.621793        -2.536114         0.605373
 C         3.201209        -0.575186         0.449735
 O         2.290984         0.307715         1.106935
 H        -0.558502        -0.340166         1.029305
 H         0.093634         1.405815         1.051609
 H        -0.711590         0.691142        -0.486189
 H         1.571106         0.549981        -2.109574
 H         2.262059         1.797308        -0.991765
 H         4.245624         0.274709        -1.657162
 H         1.911526        -1.628099        -2.334091
 H         3.498612        -2.340173        -1.498248
 H         1.439605        -3.168964        -0.050002
 H         4.120598        -0.739279         1.123123
