19
Iteration:  4494
 C        -0.091831         0.392483         0.406511
 C         1.385050         0.129759         0.098797
 C         2.090442         0.705482        -1.196637
 C         3.421036        -0.137649        -1.155288
 C         2.896596        -1.541695        -1.546022
 C         2.050301        -1.399842        -0.100841
 O         1.605780        -2.562278         0.545614
 C         3.174315        -0.485188         0.444755
 O         2.299618         0.429051         1.103810
 H        -0.308016         0.587297         1.436468
 H        -0.172454         1.451530        -0.000068
 H        -0.816663        -0.277452        -0.082512
 H         1.436137         0.544459        -2.098974
 H         2.259743         1.826512        -1.042842
 H         4.350504         0.263588        -1.513740
 H         2.484059        -1.660691        -2.570934
 H         3.546037        -2.412460        -1.376498
 H         1.436379        -3.290128        -0.131039
 H         4.120156        -1.026531         0.923218
