19
Iteration:  4514
 C        -0.024418         0.377797         0.242918
 C         1.395135         0.051370         0.022367
 C         2.013647         0.758983        -1.173365
 C         3.319629        -0.074782        -1.075422
 C         2.811223        -1.479569        -1.438682
 C         2.110367        -1.429015        -0.116422
 O         1.493988        -2.560949         0.576827
 C         3.260513        -0.511973         0.426298
 O         2.445279         0.405804         1.130233
 H        -0.234426         0.303930         1.303884
 H        -0.459371         1.349661        -0.073804
 H        -0.508588        -0.576584        -0.174629
 H         1.560859         0.610593        -2.138786
 H         2.155273         1.797298        -1.041790
 H         4.168749         0.301370        -1.593965
 H         2.161689        -1.668196        -2.380370
 H         3.668184        -2.097355        -1.361773
 H         1.425767        -3.264332        -0.130865
 H         4.334541        -0.753400         0.977948
