19
Iteration:  3698
 C        -0.127320         0.251470         0.303899
 C         1.323905         0.014345         0.019152
 C         2.144519         0.762615        -1.264649
 C         3.463263        -0.156874        -1.165919
 C         2.806395        -1.483686        -1.489533
 C         2.087594        -1.375220        -0.094649
 O         1.557828        -2.565980         0.545702
 C         3.190615        -0.430694         0.507559
 O         2.327749         0.435343         1.104535
 H        -0.352909        -0.325372         1.162749
 H        -0.295777         1.324404         0.674368
 H        -0.725838         0.223375        -0.643924
 H         1.541472         0.496610        -2.184423
 H         2.341388         1.867426        -0.927137
 H         4.301243         0.459434        -1.441968
 H         2.278987        -1.594830        -2.399768
 H         3.681224        -2.193486        -1.532954
 H         2.223215        -2.599184         1.334834
 H         4.097637        -0.723451         1.101983
