19
Iteration:  3144charge 0 multiplicity 1
 C        -0.041128         0.174002         0.266093
 C         1.390331         0.045756         0.027666
 C         2.005203         0.771129        -1.126033
 C         3.350316        -0.101724        -1.190933
 C         2.843871        -1.510701        -1.408205
 C         2.098602        -1.391812        -0.101148
 O         1.482920        -2.425709         0.553538
 C         3.232363        -0.447844         0.394995
 O         2.421369         0.406981         1.116600
 H        -0.452594        -0.662667         0.857203
 H        -0.262278         1.231590         0.725615
 H        -0.623608         0.092092        -0.685331
 H         1.591347         0.715516        -2.191324
 H         2.130102         1.908297        -0.889123
 H         4.236077         0.237841        -1.713370
 H         2.374743        -1.808932        -2.427996
 H         3.682234        -2.256156        -1.353412
 H         2.084242        -2.882896         1.158300
 H         4.145543        -0.901956         0.792309
