19
Iteration:  2600
 C        -0.078892         0.318628         0.355120
 C         1.331439         0.068763         0.007240
 C         2.049821         0.747992        -1.176582
 C         3.363333        -0.176699        -1.215146
 C         2.788532        -1.460818        -1.452316
 C         2.149203        -1.409364        -0.059257
 O         1.623476        -2.587340         0.520902
 C         3.208517        -0.464312         0.442111
 O         2.349246         0.455676         1.045300
 H        -0.559487        -0.363036         1.076995
 H        -0.080545         1.425270         0.696578
 H        -0.651296         0.170170        -0.522154
 H         1.373956         0.669801        -2.026764
 H         2.122092         1.840572        -0.896452
 H         4.327274         0.177845        -1.589356
 H         2.262303        -1.866740        -2.381910
 H         3.547489        -2.184335        -1.219029
 H         2.132972        -2.806803         1.353161
 H         4.150348        -0.614798         0.970047
