19
Iteration:  2632
 C        -0.058970         0.281798         0.346973
 C         1.384515         0.108517        -0.081336
 C         2.038867         0.823847        -1.218380
 C         3.330478        -0.177437        -1.099648
 C         2.769283        -1.513513        -1.530133
 C         2.191688        -1.418306        -0.137243
 O         1.614644        -2.471920         0.656086
 C         3.182732        -0.504352         0.429717
 O         2.316886         0.371616         1.093246
 H        -0.179271        -0.233490         1.327141
 H        -0.336914         1.429043         0.366060
 H        -0.718926        -0.141125        -0.352788
 H         1.588874         0.556739        -2.166846
 H         2.155814         1.924945        -0.961646
 H         4.306015         0.326463        -1.312883
 H         2.175037        -1.766973        -2.496502
 H         3.573155        -2.241719        -1.533017
 H         2.263662        -3.003088         1.071824
 H         4.134077        -0.618973         0.891493
