19
Iteration:  3828
 C        -0.049918         0.202718         0.300488
 C         1.374308         0.079753        -0.025465
 C         2.018614         0.739988        -1.189568
 C         3.359035        -0.038325        -1.139974
 C         2.895334        -1.528428        -1.468790
 C         2.205141        -1.392825        -0.149890
 O         1.442923        -2.396450         0.578889
 C         3.207268        -0.541384         0.484544
 O         2.339912         0.391036         1.113612
 H        -0.289492        -0.112012         1.271008
 H        -0.197150         1.276760         0.125809
 H        -0.635378        -0.443138        -0.365631
 H         1.539338         0.805536        -2.210424
 H         2.201423         1.844358        -0.905718
 H         4.359349         0.139796        -1.455716
 H         2.233522        -1.805987        -2.326179
 H         3.860436        -2.106943        -1.447526
 H         2.070595        -3.068519         0.822626
 H         4.139280        -0.862223         1.018451
