19
Iteration:  1139
 C        -0.090969         0.320220         0.383107
 C         1.411369         0.111362         0.122473
 C         1.941565         0.759213        -1.208628
 C         3.334063        -0.118316        -1.192291
 C         2.747866        -1.475028        -1.548895
 C         2.154736        -1.457322        -0.104847
 O         1.528034        -2.527703         0.642568
 C         3.337996        -0.435121         0.379193
 O         2.489099         0.375311         1.094999
 H        -0.226615        -0.322833         1.354097
 H        -0.223723         1.475998         0.504271
 H        -0.915342         0.054866        -0.252104
 H         1.449695         0.436480        -2.066331
 H         1.980669         1.866895        -1.100186
 H         4.127066         0.370438        -1.673592
 H         2.211931        -1.582051        -2.585672
 H         3.446813        -2.432859        -1.635286
 H         1.461697        -3.386742         0.144922
 H         4.313966        -0.666256         0.897609
