19
Iteration:  2696
 C         0.018277         0.041828         0.389046
 C         1.409467         0.108472         0.005468
 C         2.077491         0.788759        -1.213645
 C         3.321486        -0.098589        -1.310168
 C         2.790420        -1.494656        -1.425685
 C         2.143562        -1.378770        -0.023866
 O         1.399407        -2.441427         0.551447
 C         3.258517        -0.450488         0.498046
 O         2.403109         0.512296         1.064036
 H        -0.190304        -0.665166         1.207988
 H        -0.447264         1.059103         0.530175
 H        -0.484860        -0.474298        -0.355872
 H         1.567043         0.729112        -2.184368
 H         2.248681         1.884009        -1.025021
 H         4.366819         0.190996        -1.531160
 H         2.278427        -1.965000        -2.271126
 H         3.500280        -2.308404        -1.193763
 H         1.894060        -3.232094         0.276803
 H         4.124187        -0.702616         1.010415
