19
Iteration:   232
 C        -0.135675         0.155936         0.395841
 C         1.374514         0.049420         0.028064
 C         2.104077         0.751656        -1.205606
 C         3.340752        -0.145758        -1.074733
 C         2.697323        -1.477415        -1.470670
 C         2.147468        -1.365045        -0.069958
 O         1.660741        -2.552237         0.445761
 C         3.256583        -0.439616         0.416340
 O         2.395899         0.524513         1.080969
 H        -0.353896        -0.516389         1.287560
 H        -0.511373         1.203080         0.565277
 H        -0.605406        -0.319596        -0.438407
 H         1.719310         0.657988        -2.188356
 H         2.270902         1.803314        -1.004540
 H         4.320997         0.200703        -1.704564
 H         2.173480        -1.620135        -2.487792
 H         3.447880        -2.257038        -1.435936
 H         0.973819        -2.500583         1.101602
 H         4.178015        -0.721106         0.985435
