19
Iteration:  3616
 C        -0.000114         0.157925         0.338648
 C         1.402905         0.039038        -0.054227
 C         2.107258         0.750078        -1.217086
 C         3.411190        -0.084153        -1.108418
 C         2.808937        -1.494695        -1.439372
 C         2.079448        -1.362183        -0.166852
 O         1.569416        -2.412383         0.617951
 C         3.204715        -0.534977         0.449993
 O         2.317634         0.413546         1.125012
 H        -0.193260        -0.253474         1.342293
 H        -0.234381         1.192465         0.339711
 H        -0.692080        -0.427464        -0.244800
 H         1.642576         0.689611        -2.239435
 H         2.032548         1.843102        -0.977052
 H         4.214484         0.450168        -1.701957
 H         2.286558        -1.651225        -2.434520
 H         3.673421        -2.181896        -1.376260
 H         0.749870        -2.645071         0.146799
 H         4.093648        -0.851622         0.974091
