19
Iteration:  1333
 C         0.040722         0.339182         0.419182
 C         1.473055         0.068603         0.072102
 C         1.951063         0.744038        -1.065791
 C         3.264410        -0.133083        -1.227814
 C         2.700691        -1.564874        -1.560035
 C         2.049643        -1.330846        -0.103124
 O         1.564614        -2.495479         0.612090
 C         3.316533        -0.510277         0.367406
 O         2.500383         0.412291         1.056777
 H        -0.283278        -0.382325         1.220936
 H        -0.239657         1.437757         0.501812
 H        -0.639656         0.045642        -0.524655
 H         1.066732         0.580957        -1.802120
 H         2.084398         1.906855        -0.952767
 H         4.055828         0.254515        -1.786864
 H         2.155109        -1.425859        -2.437816
 H         3.514741        -2.315644        -1.291244
 H         1.529028        -3.226596        -0.037949
 H         4.105885        -1.060412         0.933144
