19
Iteration:  3718
 C         0.020471         0.332188         0.323583
 C         1.375423         0.022496        -0.066758
 C         2.035874         0.749151        -1.223798
 C         3.340769        -0.010259        -1.046459
 C         2.855045        -1.526856        -1.443244
 C         2.144382        -1.416398        -0.130911
 O         1.553565        -2.488655         0.567606
 C         3.188739        -0.515747         0.443754
 O         2.248701         0.408356         1.052683
 H        -0.224296        -0.515007         0.999134
 H        -0.184405         1.224615         0.873511
 H        -0.660841         0.233630        -0.489905
 H         1.662743         0.388604        -2.239255
 H         2.239582         1.840587        -0.968232
 H         4.401542         0.143803        -1.374598
 H         2.332262        -1.664795        -2.438273
 H         3.670017        -2.270910        -1.318336
 H         2.210325        -2.970404         1.147772
 H         4.111390        -0.901281         0.947029
