19
Iteration:  1501charge 0 multiplicity 1
 C         0.022244         0.300162         0.495529
 C         1.418932         0.063236         0.089970
 C         1.957214         0.761726        -1.142850
 C         3.295530        -0.160781        -1.199856
 C         2.697592        -1.466944        -1.568320
 C         2.067606        -1.364677        -0.167591
 O         1.657007        -2.393792         0.630844
 C         3.244998        -0.630299         0.294723
 O         2.492186         0.350333         1.087143
 H        -0.155864         0.026674         1.576418
 H        -0.010507         1.443664         0.524609
 H        -0.684582         0.008929        -0.234147
 H         1.437957         0.723673        -2.149889
 H         1.902617         1.872533        -0.874807
 H         4.238490         0.092665        -1.882202
 H         2.061326        -1.556393        -2.470536
 H         3.409315        -2.305326        -1.406562
 H         0.871609        -2.809281         0.209225
 H         4.038554        -0.998317         0.946098
