19
Iteration:  3267
 C        -0.015678         0.326181         0.318345
 C         1.414125         0.058915        -0.005027
 C         2.068806         0.820209        -1.250487
 C         3.332735        -0.045180        -1.110690
 C         2.801447        -1.530863        -1.502498
 C         2.111269        -1.419327        -0.061106
 O         1.531332        -2.555968         0.597019
 C         3.260644        -0.478416         0.391233
 O         2.308939         0.372044         1.146482
 H        -0.424718        -0.212900         1.196548
 H        -0.303203         1.401273         0.377156
 H        -0.604508        -0.190078        -0.513382
 H         1.533319         0.415359        -2.077117
 H         2.033426         1.811932        -0.959051
 H         4.205931         0.496291        -1.477246
 H         2.327430        -1.533221        -2.552565
 H         3.472012        -2.326575        -1.552345
 H         2.310105        -3.157203         0.749299
 H         4.254588        -0.706305         0.902088
