19
Iteration:   922
 C        -0.028536         0.172551         0.369457
 C         1.430827         0.075675         0.046658
 C         1.935977         0.738913        -1.206191
 C         3.343632        -0.144761        -1.139356
 C         2.851413        -1.497511        -1.517050
 C         2.142764        -1.385434        -0.086762
 O         1.506928        -2.450289         0.532884
 C         3.234455        -0.472976         0.386478
 O         2.395238         0.467377         1.115510
 H        -0.282381        -0.354188         1.316566
 H        -0.306932         1.249941         0.558519
 H        -0.541512        -0.171512        -0.475453
 H         1.332142         0.571718        -2.149621
 H         2.346586         1.774627        -0.935925
 H         4.183691         0.365727        -1.525892
 H         2.190473        -1.731268        -2.421993
 H         3.500761        -2.338205        -1.775789
 H         1.950450        -2.853228         1.245823
 H         4.197129        -0.785606         0.891424
