19
Iteration:   575
 C        -0.057972         0.206201         0.334091
 C         1.413467        -0.067313        -0.010848
 C         1.972814         0.791691        -1.148399
 C         3.335476        -0.054528        -1.217807
 C         2.769133        -1.479803        -1.555379
 C         2.204640        -1.380919        -0.100960
 O         1.479538        -2.424455         0.636570
 C         3.324517        -0.431864         0.408838
 O         2.385648         0.331697         1.135195
 H        -0.348577        -0.483960         1.186038
 H        -0.236564         1.264738         0.522414
 H        -0.667356        -0.092430        -0.637355
 H         1.485998         0.769468        -2.186788
 H         2.096055         1.874818        -0.990680
 H         4.211685         0.270901        -1.744408
 H         2.107123        -1.569188        -2.415409
 H         3.562606        -2.326013        -1.628068
 H         2.045388        -2.746631         1.429222
 H         4.286853        -0.646022         0.946724
