19
Iteration:  4766
 C        -0.059994         0.252977         0.458829
 C         1.405758         0.068648        -0.021440
 C         2.112729         0.870350        -1.154136
 C         3.413472        -0.117279        -1.121963
 C         2.790985        -1.527616        -1.538743
 C         2.082255        -1.418403        -0.114626
 O         1.417610        -2.492077         0.442758
 C         3.243984        -0.552214         0.412834
 O         2.432640         0.372816         1.099401
 H        -0.179227         0.015632         1.559592
 H        -0.330944         1.327031         0.279979
 H        -0.704737        -0.473487         0.037030
 H         1.562372         0.761481        -2.102084
 H         2.515442         1.792208        -0.768744
 H         4.405161         0.113209        -1.570984
 H         2.238603        -1.466083        -2.497499
 H         3.500020        -2.303788        -1.535000
 H         1.200216        -2.175673         1.317364
 H         4.250316        -0.770732         0.889740
