19
Iteration:  3477
 C        -0.113957         0.133053         0.378985
 C         1.440739         0.052055        -0.003546
 C         2.107892         0.819559        -1.266908
 C         3.373769        -0.115892        -1.123509
 C         2.763668        -1.515399        -1.493675
 C         2.184268        -1.376539        -0.107576
 O         1.428805        -2.429685         0.497837
 C         3.271588        -0.499997         0.517975
 O         2.399950         0.420344         1.117932
 H        -0.382688        -0.680677         1.229774
 H        -0.519600         1.123210         0.608991
 H        -0.629193        -0.370881        -0.422019
 H         1.676250         0.668391        -2.316013
 H         2.385719         1.834001        -1.039975
 H         4.221864         0.362803        -1.695879
 H         2.160538        -1.494407        -2.470718
 H         3.553750        -2.190258        -1.686572
 H         1.750368        -2.310067         1.471601
 H         4.119320        -0.918338         0.988271
