19
Iteration:   763charge 0 multiplicity 1
 C        -0.010974         0.154028         0.406785
 C         1.477094         0.092084         0.073758
 C         1.967241         0.734913        -1.189339
 C         3.329578        -0.039810        -1.235211
 C         2.844573        -1.506173        -1.546219
 C         2.081024        -1.390188        -0.159926
 O         1.499323        -2.431446         0.616503
 C         3.207373        -0.482370         0.426321
 O         2.402899         0.403823         1.132616
 H        -0.521309        -0.424527         1.193469
 H        -0.378286         1.136913         0.296194
 H        -0.422404         0.045192        -0.623711
 H         1.384233         0.544854        -2.076439
 H         2.105601         1.787363        -1.180803
 H         4.262114         0.381745        -1.567383
 H         2.415725        -1.683140        -2.498906
 H         3.561201        -2.374845        -1.439929
 H         2.227949        -2.849555         1.037568
 H         4.108946        -1.032231         0.907090
