19
Iteration:  4803charge 0 multiplicity 1
 C         0.039515         0.498612         0.376320
 C         1.386811         0.037356         0.102436
 C         2.065759         0.792550        -1.200128
 C         3.333046        -0.120460        -1.161263
 C         2.766921        -1.481451        -1.509567
 C         2.086153        -1.420357        -0.128001
 O         1.641062        -2.589411         0.489555
 C         3.228916        -0.508249         0.423316
 O         2.355376         0.272986         1.166141
 H        -0.365623         0.144936         1.361069
 H         0.069237         1.619631         0.448984
 H        -0.727139         0.347156        -0.477952
 H         1.358153         0.572059        -1.986970
 H         2.047411         1.879013        -1.034154
 H         4.295456         0.160602        -1.750369
 H         2.304622        -1.351475        -2.640546
 H         3.415732        -2.446681        -1.441583
 H         0.657414        -2.727496         0.578716
 H         4.059392        -0.888145         0.960217
