19
Iteration:    96
 C        -0.058665         0.205097         0.294504
 C         1.341857         0.077781        -0.019742
 C         1.984863         0.719768        -1.224375
 C         3.393582        -0.086464        -1.072992
 C         2.802814        -1.494040        -1.515681
 C         2.141417        -1.323594        -0.192483
 O         1.737358        -2.406722         0.602459
 C         3.204108        -0.559178         0.473512
 O         2.356425         0.389539         1.157118
 H        -0.324324        -0.443644         1.122901
 H        -0.394441         1.187796         0.577403
 H        -0.750707        -0.266731        -0.514051
 H         1.424927         0.412222        -2.128280
 H         1.846028         1.799335        -1.184833
 H         4.249065         0.335770        -1.347988
 H         2.300332        -1.631951        -2.435454
 H         3.698276        -2.200029        -1.552508
 H         0.715854        -2.505489         0.615675
 H         3.962014        -1.045813         1.126564
