19
Iteration:  2192
 C         0.050157         0.264469         0.406363
 C         1.426641         0.001757         0.087248
 C         2.024837         0.724056        -1.154754
 C         3.321642        -0.074407        -1.238873
 C         2.754371        -1.522324        -1.516989
 C         2.064418        -1.418058        -0.081665
 O         1.444807        -2.443559         0.600170
 C         3.306577        -0.469092         0.384550
 O         2.452540         0.422210         1.045980
 H        -0.414748        -0.546661         1.001433
 H         0.075793         1.199671         0.948052
 H        -0.674732         0.349443        -0.452572
 H         1.321285         0.569595        -2.008788
 H         1.895241         1.761588        -0.966312
 H         4.119876         0.407450        -1.677290
 H         2.021531        -1.580775        -2.255851
 H         3.572257        -2.246681        -1.531961
 H         1.996611        -3.265569         0.386787
 H         4.279649        -0.547601         0.930769
