19
Iteration:  1076
 C        -0.022592         0.150432         0.510669
 C         1.424987         0.106074         0.023890
 C         2.031728         0.756951        -1.246276
 C         3.350855        -0.099582        -1.182734
 C         2.798964        -1.479872        -1.574133
 C         2.156727        -1.447400        -0.094892
 O         1.522198        -2.501353         0.563071
 C         3.251618        -0.514883         0.356121
 O         2.364018         0.440246         1.055373
 H        -0.297232        -0.560100         1.417476
 H        -0.153732         1.311037         0.672782
 H        -0.746733        -0.015444        -0.290845
 H         1.524276         0.860273        -2.225489
 H         2.242137         1.827122        -0.972329
 H         4.318044         0.218811        -1.519081
 H         1.884675        -1.418893        -2.192151
 H         3.483809        -2.213237        -1.493871
 H         1.469948        -2.062614         1.460619
 H         4.124188        -0.802129         1.067942
