19
Iteration:    78charge 0 multiplicity 1
 C        -0.092884         0.228970         0.375116
 C         1.416470         0.013884         0.012958
 C         1.974781         0.700460        -1.225282
 C         3.316729         0.004546        -1.165586
 C         3.005727        -1.454156        -1.529395
 C         2.166629        -1.398505        -0.172271
 O         1.586890        -2.386771         0.661788
 C         3.259920        -0.516716         0.419202
 O         2.278506         0.263781         1.133587
 H        -0.395717        -0.139982         1.381620
 H        -0.141941         1.319656         0.342181
 H        -0.675811        -0.218283        -0.366815
 H         1.440826         0.353084        -2.127356
 H         2.111004         1.778894        -1.221954
 H         4.233113         0.523007        -1.664679
 H         2.459145        -1.606411        -2.494905
 H         3.763848        -2.203038        -1.413547
 H         0.580809        -2.194463         0.645259
 H         4.148208        -0.757556         0.965082
