19
Iteration:   316
 C        -0.036576         0.150856         0.435046
 C         1.439024         0.049812        -0.011003
 C         2.029233         0.774274        -1.260869
 C         3.382456        -0.071210        -1.094972
 C         2.821809        -1.423493        -1.509663
 C         2.031583        -1.403281        -0.117953
 O         1.683424        -2.517081         0.629588
 C         3.149562        -0.489711         0.386529
 O         2.362968         0.441848         1.059543
 H        -0.265218        -0.484789         1.327314
 H        -0.271878         1.216252         0.680640
 H        -0.797317         0.005449        -0.320721
 H         1.452116         0.569892        -2.224621
 H         2.373590         1.859753        -1.203541
 H         4.261492         0.208761        -1.475775
 H         2.260019        -1.485322        -2.429863
 H         3.531007        -2.231638        -1.361426
 H         0.764729        -2.906758         0.459933
 H         4.085971        -0.759184         0.940355
