19
Iteration:   761charge 0 multiplicity 1
 C        -0.008273         0.160555         0.394141
 C         1.483814         0.072607         0.088313
 C         1.972527         0.746546        -1.189503
 C         3.326069        -0.049801        -1.232148
 C         2.841365        -1.507671        -1.546795
 C         2.067916        -1.391627        -0.160411
 O         1.502816        -2.426013         0.608978
 C         3.204888        -0.480287         0.411568
 O         2.408299         0.415938         1.142847
 H        -0.503680        -0.443335         1.189165
 H        -0.412503         1.138192         0.341669
 H        -0.455075        -0.010995        -0.696904
 H         1.384836         0.485780        -2.057462
 H         2.108821         1.836288        -1.147872
 H         4.214609         0.370984        -1.555678
 H         2.428965        -1.714848        -2.484928
 H         3.547001        -2.371406        -1.426353
 H         2.286601        -2.867384         1.048677
 H         4.093651        -1.025132         0.924999
