19
Iteration:  1511charge 0 multiplicity 1
 C         0.032685         0.309626         0.517733
 C         1.442590        -0.027606         0.095316
 C         1.995603         0.779141        -1.155750
 C         3.262795        -0.082265        -1.224412
 C         2.672561        -1.478251        -1.542154
 C         2.075604        -1.406148        -0.136151
 O         1.547774        -2.392206         0.655744
 C         3.339578        -0.562456         0.325030
 O         2.483605         0.336971         1.027252
 H        -0.397342        -0.125269         1.483334
 H        -0.059807         1.446518         0.553413
 H        -0.646419        -0.090517        -0.201650
 H         1.374586         0.614746        -2.080257
 H         2.294778         1.876868        -0.968442
 H         4.152301         0.421913        -1.760362
 H         2.254997        -1.505192        -2.491221
 H         3.367026        -2.341787        -1.542467
 H         0.947592        -3.012685         0.145117
 H         4.293563        -0.951768         0.726632
