19
Iteration:   391
 C        -0.054812         0.186025         0.415882
 C         1.418031         0.024949        -0.000683
 C         1.966434         0.742267        -1.220860
 C         3.321319        -0.061110        -1.116830
 C         2.844010        -1.477419        -1.558647
 C         2.130641        -1.356775        -0.129670
 O         1.534879        -2.399546         0.592023
 C         3.229140        -0.534016         0.415971
 O         2.399275         0.359139         1.089585
 H        -0.293137        -0.410982         1.301153
 H        -0.313638         1.217331         0.590014
 H        -0.712558        -0.022270        -0.441408
 H         1.492606         0.516078        -2.247126
 H         2.028995         1.867743        -1.110169
 H         4.168500         0.390608        -1.443606
 H         2.352293        -1.401407        -2.515311
 H         3.624008        -2.317606        -1.462155
 H         2.194140        -2.793130         1.224292
 H         4.185990        -0.852167         0.877569
