19
Iteration:   591
 C        -0.042367         0.142454         0.358643
 C         1.388706         0.083604         0.005608
 C         2.096060         0.812252        -1.198805
 C         3.245069        -0.050081        -1.193058
 C         2.827564        -1.512400        -1.443395
 C         2.114945        -1.396774        -0.131054
 O         1.555304        -2.399521         0.613210
 C         3.207881        -0.554429         0.323976
 O         2.377461         0.369846         1.080160
 H        -0.361490        -0.391314         1.231196
 H        -0.282441         1.198966         0.654915
 H        -0.714249        -0.198068        -0.348307
 H         1.419880         0.744638        -2.037389
 H         2.305056         1.673028        -0.585256
 H         4.173656         0.395003        -1.667014
 H         2.255265        -1.718518        -2.393315
 H         3.705689        -2.104888        -1.323641
 H         2.315334        -2.673348         1.219130
 H         4.134000        -0.910039         0.828250
