19
Iteration:  2450
 C        -0.043249         0.306932         0.423732
 C         1.371304         0.008372        -0.044898
 C         1.987073         0.812129        -1.160006
 C         3.300079        -0.086831        -1.224668
 C         2.862157        -1.528376        -1.531984
 C         2.116681        -1.413366        -0.091778
 O         1.535423        -2.498482         0.549430
 C         3.285983        -0.566949         0.452453
 O         2.366239         0.438416         1.107586
 H        -0.230397         0.101933         1.459642
 H        -0.274392         1.366960         0.112373
 H        -0.804585        -0.280938        -0.243641
 H         1.553379         0.663856        -2.147172
 H         2.216442         1.877186        -1.052903
 H         4.150743         0.325586        -1.664910
 H         2.304861        -1.820179        -2.472748
 H         3.595504        -2.315225        -1.319668
 H         2.166786        -2.549646         1.363762
 H         4.263549        -0.958462         0.918141
