19
Iteration:  4395charge 0 multiplicity 1
 C        -0.008090         0.112062         0.244661
 C         1.470977         0.115282        -0.000613
 C         2.125959         0.796319        -1.154400
 C         3.322688        -0.130420        -1.197572
 C         2.812677        -1.451659        -1.577045
 C         2.142393        -1.477172        -0.094043
 O         1.455286        -2.451268         0.644168
 C         3.263714        -0.505184         0.446478
 O         2.339401         0.426327         1.134489
 H        -0.356359        -0.833392         0.545377
 H        -0.302101         0.718206         1.087745
 H        -0.534608         0.259450        -0.724445
 H         1.539878         0.815097        -2.143582
 H         2.472931         1.839491        -0.967331
 H         4.212662         0.271179        -1.582347
 H         2.060269        -1.464430        -2.390044
 H         3.373429        -2.315889        -1.504259
 H         1.025568        -1.922739         1.355959
 H         4.165798        -0.647367         1.196507
