19
Iteration:  2873charge 0 multiplicity 1
 C         0.027623         0.218445         0.317827
 C         1.433310        -0.004177         0.040118
 C         1.948675         0.654671        -1.185308
 C         3.343498        -0.075186        -1.164183
 C         2.789625        -1.451888        -1.452490
 C         2.169846        -1.434266        -0.098547
 O         1.548369        -2.476152         0.494262
 C         3.236731        -0.497531         0.441447
 O         2.431163         0.455124         1.099200
 H        -0.145056        -0.094099         1.353076
 H        -0.284577         1.298973         0.533772
 H        -0.645072        -0.262643        -0.434042
 H         1.254473         0.575272        -2.070891
 H         1.947235         1.778640        -0.975527
 H         4.190448         0.441141        -1.658268
 H         2.005948        -1.560191        -2.298444
 H         3.529448        -2.202462        -1.270713
 H         0.768477        -2.044719         0.884714
 H         4.258988        -0.686639         0.992223
