19
Iteration:  2625charge 0 multiplicity 1
 C        -0.059308         0.282453         0.369799
 C         1.324601         0.138264        -0.063283
 C         2.091042         0.808246        -1.227178
 C         3.351754        -0.116482        -1.080671
 C         2.746330        -1.582852        -1.517815
 C         2.164718        -1.435182        -0.130798
 O         1.647662        -2.513708         0.611866
 C         3.201926        -0.473813         0.397830
 O         2.292316         0.410620         1.102922
 H        -0.307126        -0.196704         1.274177
 H        -0.075964         1.352674         0.406712
 H        -0.825538        -0.123772        -0.381495
 H         1.562762         0.833875        -2.201704
 H         2.388837         1.788685        -0.907070
 H         4.125608         0.390775        -1.570112
 H         2.239521        -1.870867        -2.441320
 H         3.460873        -2.412970        -1.389190
 H         2.321897        -2.969175         1.127173
 H         4.145472        -0.755786         1.011969
