19
Iteration:  1916
 C        -0.070557         0.265046         0.478568
 C         1.419003         0.038654         0.029263
 C         1.975535         0.856285        -1.141979
 C         3.354240        -0.146717        -1.233871
 C         2.727588        -1.469617        -1.570838
 C         2.046832        -1.370851        -0.144300
 O         1.530151        -2.412637         0.633165
 C         3.307870        -0.560038         0.323777
 O         2.503222         0.321415         1.095791
 H        -0.262692        -0.327877         1.370527
 H        -0.369392         1.326420         0.603050
 H        -0.820278        -0.100848        -0.245168
 H         1.463901         0.652447        -2.031462
 H         2.337968         1.845202        -0.866888
 H         4.103773         0.204286        -1.907291
 H         1.922718        -1.514724        -2.356666
 H         3.400210        -2.413404        -1.654374
 H         2.325551        -2.724996         1.087468
 H         4.173618        -1.004330         0.791600
