19
Iteration:  3880charge 0 multiplicity 1
 C        -0.025947         0.251417         0.291906
 C         1.361751         0.095869        -0.084583
 C         2.102863         0.777902        -1.238451
 C         3.296782        -0.089733        -1.124660
 C         2.823556        -1.526991        -1.463787
 C         2.128685        -1.409940        -0.059872
 O         1.554603        -2.559483         0.504503
 C         3.206147        -0.501859         0.516301
 O         2.337380         0.477163         1.112127
 H        -0.322058        -0.400125         1.231991
 H        -0.104484         1.324751         0.582237
 H        -0.763858        -0.069244        -0.470661
 H         1.665028         0.597491        -2.204410
 H         2.182767         1.748149        -0.858272
 H         4.381386         0.218172        -1.420469
 H         2.243781        -1.546091        -2.453392
 H         3.586406        -2.260398        -1.473686
 H         2.066290        -2.854887         1.213794
 H         3.995703        -0.765121         1.279913
