19
Iteration:  4075
 C        -0.109105         0.115895         0.282816
 C         1.365053         0.008743        -0.075379
 C         2.159012         0.790952        -1.139080
 C         3.339205        -0.117376        -1.134595
 C         2.792449        -1.436214        -1.429875
 C         2.149437        -1.341292        -0.110136
 O         1.469385        -2.370898         0.600379
 C         3.264322        -0.502492         0.494877
 O         2.373964         0.386571         1.037712
 H        -0.262134        -0.220568         1.308720
 H        -0.398849         1.096464         0.152381
 H        -0.613944        -0.410390        -0.418327
 H         1.711231         0.597976        -2.159166
 H         2.435249         1.819750        -0.888849
 H         4.355793         0.206091        -1.565692
 H         2.199811        -1.514512        -2.381145
 H         3.461031        -2.224670        -1.490669
 H         2.063308        -3.080697         0.612584
 H         3.958610        -0.897417         1.299598
