19
Iteration:  3037charge 0 multiplicity 1
 C         0.019299         0.169813         0.420550
 C         1.441991         0.024896        -0.054117
 C         1.977105         0.725164        -1.201529
 C         3.375939        -0.073721        -1.089073
 C         2.800431        -1.519611        -1.463012
 C         2.135809        -1.357286        -0.104994
 O         1.519133        -2.398852         0.550391
 C         3.296044        -0.521740         0.458894
 O         2.331616         0.446745         1.038806
 H        -0.108233        -0.154289         1.408533
 H        -0.296718         1.229008         0.570420
 H        -0.510910        -0.179244        -0.492129
 H         1.359765         0.416281        -2.084653
 H         2.127320         1.795826        -1.032746
 H         4.273706         0.499036        -1.305066
 H         2.055739        -1.696831        -2.338781
 H         3.536832        -2.203764        -1.227548
 H         1.033309        -3.021844        -0.038784
 H         4.294123        -0.981132         0.855774
