19
Iteration:  4016
 C        -0.098007         0.327389         0.373794
 C         1.323398         0.001314        -0.045176
 C         2.107580         0.715713        -1.214734
 C         3.396400        -0.066487        -1.136120
 C         2.853403        -1.527223        -1.465135
 C         2.170048        -1.358960        -0.080173
 O         1.531097        -2.545704         0.445263
 C         3.280895        -0.495999         0.467668
 O         2.317461         0.434203         1.104268
 H        -0.328461         0.073427         1.408771
 H        -0.385646         1.416782         0.100269
 H        -0.819683        -0.374130        -0.253789
 H         1.569688         0.669545        -2.212839
 H         2.089588         1.886080        -1.073173
 H         4.381397         0.320159        -1.309067
 H         2.083918        -1.617185        -2.244491
 H         3.610411        -2.411927        -1.268531
 H         1.701247        -2.680550         1.432028
 H         4.051000        -0.815393         1.159022
