19
Iteration:  1714
 C         0.072367         0.210031         0.582239
 C         1.469648         0.105172         0.065197
 C         1.954465         0.796175        -1.174547
 C         3.275884        -0.057438        -1.219323
 C         2.766923        -1.451261        -1.483143
 C         2.072892        -1.405601        -0.140817
 O         1.422038        -2.392135         0.539864
 C         3.286699        -0.653611         0.169094
 O         2.495114         0.321477         1.085732
 H         0.094639        -0.214429         1.586595
 H        -0.145387         1.242887         0.854937
 H        -0.705791        -0.115084        -0.100294
 H         1.340366         0.681368        -2.091329
 H         2.162823         1.854090        -1.209399
 H         4.125515         0.151290        -1.779206
 H         2.116352        -1.671367        -2.373671
 H         3.587171        -2.152201        -1.458924
 H         1.819272        -2.373049         1.453116
 H         4.076437        -0.962046         0.857558
