19
Iteration:   165
 C        -0.048619         0.193030         0.349023
 C         1.381141         0.040802         0.051632
 C         2.020605         0.662138        -1.223511
 C         3.418218        -0.050099        -1.114641
 C         2.848450        -1.404605        -1.538875
 C         2.065812        -1.348529        -0.126810
 O         1.554686        -2.410939         0.646475
 C         3.272286        -0.446131         0.395476
 O         2.329612         0.363641         1.117339
 H        -0.635958        -0.487048         1.003665
 H        -0.346493         1.200466         0.685076
 H        -0.624588         0.035169        -0.520139
 H         1.554150         0.341851        -2.064549
 H         1.912602         1.728206        -1.156200
 H         4.394915         0.184775        -1.687107
 H         2.446481        -1.780595        -2.526547
 H         3.576530        -2.173166        -1.328071
 H         1.946809        -3.271163         0.271480
 H         4.065211        -0.936829         0.944110
