19
Iteration:   745charge 0 multiplicity 1
 C        -0.069530         0.144308         0.277004
 C         1.378755         0.074574         0.048782
 C         2.033751         0.723221        -1.129579
 C         3.289407        -0.089790        -1.141156
 C         2.755046        -1.513025        -1.460632
 C         2.107302        -1.343592        -0.108249
 O         1.545032        -2.425549         0.562762
 C         3.304831        -0.494890         0.351396
 O         2.433053         0.428476         1.128001
 H        -0.209077        -0.454664         1.169747
 H        -0.380762         1.280353         0.613269
 H        -0.721204        -0.198158        -0.549781
 H         1.396988         0.764022        -2.122535
 H         2.141386         1.835968        -0.959425
 H         4.259100         0.219532        -1.716438
 H         2.134382        -1.695787        -2.452718
 H         3.610814        -2.178343        -1.399093
 H         2.225795        -2.971686         0.918879
 H         4.230214        -0.819441         0.739933
