19
Iteration:  3075
 C        -0.104700         0.382521         0.375894
 C         1.351707         0.114151         0.032453
 C         2.023109         0.800571        -1.176430
 C         3.338908        -0.120720        -1.155450
 C         2.888920        -1.545703        -1.513746
 C         2.181870        -1.455564        -0.113273
 O         1.654409        -2.577840         0.565802
 C         3.230488        -0.499090         0.403681
 O         2.344239         0.398672         1.102899
 H        -0.607395        -0.169039         1.317971
 H        -0.353088         1.471265         0.330145
 H        -0.722580        -0.114114        -0.408542
 H         1.411365         0.527779        -2.095734
 H         2.211421         1.891411        -0.885425
 H         4.280549         0.323614        -1.620163
 H         2.285790        -1.848186        -2.317087
 H         3.693304        -2.392647        -1.553763
 H         0.748138        -2.445213         0.589405
 H         4.094142        -0.662199         1.049784
