19
Iteration:  2615charge 0 multiplicity 1
 C        -0.088650         0.324993         0.371982
 C         1.370877         0.031222         0.008970
 C         2.128519         0.782150        -1.192047
 C         3.339735        -0.058585        -1.197609
 C         2.795158        -1.628093        -1.443913
 C         2.053984        -1.409963        -0.111032
 O         1.659923        -2.562890         0.557786
 C         3.227302        -0.448286         0.407121
 O         2.270128         0.454686         1.067838
 H        -0.291547        -0.166596         1.304605
 H        -0.304498         1.321973         0.620727
 H        -0.804326         0.055451        -0.489355
 H         1.659150         0.965828        -2.178499
 H         2.416130         1.760047        -0.852803
 H         4.241994         0.187328        -1.731298
 H         2.138701        -1.640362        -2.271353
 H         3.603775        -2.403715        -1.358054
 H         2.402034        -2.754344         1.101672
 H         4.062627        -0.883609         1.059796
