19
Iteration:  3128charge 0 multiplicity 1
 C        -0.139590         0.276904         0.297041
 C         1.397773         0.095330         0.024630
 C         2.080019         0.808613        -1.231450
 C         3.272691        -0.087190        -1.087078
 C         2.803942        -1.574860        -1.528296
 C         2.174388        -1.413419        -0.129919
 O         1.579633        -2.476160         0.551522
 C         3.314895        -0.544259         0.455413
 O         2.333128         0.409111         1.090650
 H        -0.495162        -0.454910         1.074199
 H        -0.434661         1.182587         0.703227
 H        -0.681914         0.155216        -0.641469
 H         1.381243         0.511541        -1.971359
 H         2.391350         1.742475        -0.860196
 H         4.221369         0.430185        -1.394572
 H         2.157908        -1.730282        -2.336700
 H         3.652970        -2.315382        -1.495101
 H         2.022397        -2.605701         1.344083
 H         4.263159        -0.741886         1.034580
