19
Iteration:  4144
 C        -0.036788         0.261183         0.333835
 C         1.380282        -0.015345         0.018208
 C         2.026192         0.768596        -1.232022
 C         3.348247        -0.141228        -1.064225
 C         2.938543        -1.552369        -1.436819
 C         2.116477        -1.366784        -0.095724
 O         1.500136        -2.439648         0.556538
 C         3.219170        -0.441148         0.441903
 O         2.315520         0.440879         1.064362
 H        -0.539649        -0.523863         0.839226
 H        -0.079011         1.168272         0.980449
 H        -0.363608         0.700134        -0.676750
 H         1.465614         0.292705        -2.025785
 H         2.070078         1.850737        -1.119929
 H         4.186024         0.350759        -1.462881
 H         2.652494        -1.847207        -2.450429
 H         3.817205        -2.221844        -1.371368
 H         1.590902        -3.283867         0.175932
 H         4.171337        -0.821295         0.941944
