19
Iteration:  2831
 C        -0.108357         0.159940         0.367204
 C         1.390342         0.098226        -0.051654
 C         2.102291         0.752923        -1.188620
 C         3.312207        -0.075721        -1.215415
 C         2.798451        -1.543372        -1.508702
 C         2.137804        -1.366196        -0.120800
 O         1.555588        -2.431215         0.568872
 C         3.265134        -0.520898         0.451186
 O         2.395619         0.403852         1.105028
 H        -0.221114        -0.480522         1.251596
 H        -0.412997         1.115570         0.709398
 H        -0.827280        -0.352161        -0.335563
 H         1.536385         0.977756        -2.107520
 H         2.228178         1.799074        -0.926175
 H         4.337728         0.247082        -1.490878
 H         2.100715        -1.675853        -2.375810
 H         3.645752        -2.201668        -1.473774
 H         1.259509        -2.429112         1.522603
 H         4.295947        -0.786380         0.979288
