19
Iteration:   907charge 0 multiplicity 1
 C        -0.066455         0.168837         0.425190
 C         1.388436         0.071301         0.058932
 C         2.102398         0.754672        -1.173466
 C         3.330013        -0.101861        -1.157688
 C         2.767774        -1.561777        -1.554761
 C         2.073572        -1.347814        -0.199681
 O         1.570389        -2.420842         0.586659
 C         3.238950        -0.510841         0.461467
 O         2.377053         0.470362         1.071600
 H        -0.229472        -0.561782         1.240075
 H        -0.434336         1.228030         0.538129
 H        -0.776513        -0.215004        -0.521521
 H         1.609223         0.554266        -2.138433
 H         2.045521         1.798002        -1.089167
 H         4.355115         0.270558        -1.548505
 H         2.258962        -1.562226        -2.530945
 H         3.521267        -2.371867        -1.398026
 H         2.385628        -2.878335         0.907980
 H         4.020085        -0.882350         1.030946
