19
Iteration:   472charge 0 multiplicity 1
 C        -0.032445         0.273642         0.381296
 C         1.448854         0.012518         0.068558
 C         1.916952         0.641958        -1.218207
 C         3.334244        -0.024062        -1.091417
 C         2.784048        -1.509264        -1.496339
 C         2.104853        -1.396786        -0.080118
 O         1.595399        -2.494311         0.519285
 C         3.330784        -0.443572         0.376259
 O         2.411558         0.369023         1.106323
 H        -0.598992        -0.230942         1.178671
 H        -0.234307         1.387947         0.494798
 H        -0.564444        -0.133053        -0.506292
 H         1.346605         0.361057        -2.146484
 H         1.997840         1.793980        -1.045452
 H         4.270938         0.447445        -1.631995
 H         2.205031        -1.426442        -2.469105
 H         3.633797        -2.133342        -1.673493
 H         0.811973        -2.252308         0.998094
 H         4.315556        -0.636380         0.856322
