19
Iteration:  2345
 C         0.024952         0.247084         0.430257
 C         1.414822         0.080345         0.046626
 C         2.026955         0.783093        -1.278890
 C         3.336696        -0.094240        -1.151223
 C         2.741025        -1.541971        -1.516945
 C         2.093087        -1.383717        -0.141515
 O         1.556097        -2.423416         0.625703
 C         3.280221        -0.532906         0.383677
 O         2.324913         0.422499         1.108984
 H        -0.286325        -0.582841         1.166307
 H        -0.090455         1.179319         0.988356
 H        -0.697851         0.256311        -0.436307
 H         1.469480         0.546904        -2.230814
 H         2.165376         1.781506        -0.914428
 H         4.252217         0.137148        -1.631243
 H         2.184438        -1.656604        -2.423485
 H         3.527286        -2.351784        -1.720096
 H         2.133409        -3.238455         0.577787
 H         4.162546        -0.906493         0.949986
