19
Iteration:  4967
 C        -0.024301         0.532429         0.432440
 C         1.398502         0.055597        -0.012965
 C         2.131500         0.790337        -1.128798
 C         3.279415        -0.100559        -1.090500
 C         2.751689        -1.412901        -1.641205
 C         2.095463        -1.458819        -0.111096
 O         1.507156        -2.573441         0.510965
 C         3.190022        -0.620625         0.404643
 O         2.437503         0.265366         1.114955
 H         0.014563         0.289728         1.486798
 H        -0.096493         1.545327         0.002274
 H        -0.809607        -0.281040         0.040039
 H         1.436117         0.729854        -2.093124
 H         2.325758         1.853122        -0.854734
 H         4.239386         0.388573        -1.436558
 H         1.897922        -1.433855        -2.273471
 H         3.611544        -2.020327        -1.713414
 H         2.151282        -2.741116         1.177553
 H         4.176902        -1.003774         0.757559
