19
Iteration:  1533charge 0 multiplicity 1
 C         0.063106         0.230874         0.481040
 C         1.456948         0.141194         0.079990
 C         1.987479         0.839362        -1.171796
 C         3.276007        -0.144435        -1.270296
 C         2.679016        -1.524106        -1.558146
 C         2.199398        -1.460886        -0.085855
 O         1.386789        -2.479582         0.638690
 C         3.301834        -0.482480         0.295372
 O         2.522853         0.420282         1.124071
 H        -0.119103        -0.452716         1.386129
 H        -0.128917         1.256309         0.966000
 H        -0.698647        -0.105866        -0.173101
 H         1.464410         0.725165        -2.178732
 H         2.126317         1.968821        -0.886396
 H         4.207314         0.103204        -1.944085
 H         2.051571        -1.652145        -2.362475
 H         3.348435        -2.371443        -1.769271
 H         1.294783        -3.223383         0.061372
 H         4.270967        -0.654735         0.800992
