19
Iteration:  1005
 C         0.030681         0.244426         0.411733
 C         1.407314        -0.004129        -0.022617
 C         2.013476         0.785283        -1.192858
 C         3.345196        -0.087208        -1.121880
 C         2.721204        -1.508925        -1.476169
 C         2.112638        -1.441613        -0.082365
 O         1.640323        -2.454420         0.648604
 C         3.253186        -0.461163         0.376123
 O         2.325742         0.411043         1.038639
 H        -0.231053        -0.316350         1.256967
 H        -0.060832         1.299591         0.597706
 H        -0.706798        -0.035948        -0.414952
 H         1.429871         0.777756        -2.101606
 H         2.216445         1.799003        -0.990220
 H         4.268441         0.359677        -1.617336
 H         2.084905        -1.506130        -2.295032
 H         3.532179        -2.265518        -1.463833
 H         1.183576        -3.061418         0.014628
 H         4.159177        -0.842085         0.663148
