19
Iteration:  3505charge 0 multiplicity 1
 C        -0.017259         0.175622         0.362708
 C         1.451427         0.036177         0.011682
 C         2.095807         0.807958        -1.182575
 C         3.404883        -0.093312        -1.113644
 C         2.766535        -1.544988        -1.477243
 C         2.080626        -1.347312        -0.152428
 O         1.469890        -2.438803         0.577141
 C         3.224924        -0.480953         0.384767
 O         2.292932         0.390334         1.064521
 H        -0.221303        -0.542349         1.076198
 H        -0.133218         1.186242         0.775273
 H        -0.688742        -0.020442        -0.540640
 H         1.659347         0.515524        -2.126428
 H         2.407160         1.812717        -0.822525
 H         4.197244         0.464330        -1.616607
 H         2.446520        -1.605632        -2.497325
 H         3.762317        -2.088470        -1.364983
 H         2.165788        -2.680217         1.271961
 H         4.038308        -1.068349         0.917511
