19
Iteration:  1811charge 0 multiplicity 1
 C         0.021361         0.332411         0.566712
 C         1.437073         0.031371         0.049785
 C         1.989920         0.773471        -1.149692
 C         3.299279        -0.099458        -1.236000
 C         2.700270        -1.532141        -1.579478
 C         2.129383        -1.433622        -0.124133
 O         1.569750        -2.396215         0.652671
 C         3.309299        -0.535950         0.281844
 O         2.425330         0.310246         1.100388
 H        -0.374965        -0.136939         1.531857
 H         0.059058         1.391710         0.902829
 H        -0.830717         0.252501        -0.290309
 H         1.304945         0.853875        -2.115546
 H         2.089905         1.879577        -1.048354
 H         4.091075         0.193915        -1.953289
 H         2.137034        -1.515654        -2.507161
 H         3.566087        -2.136157        -1.814145
 H         1.051016        -3.088448         0.142402
 H         4.287469        -0.921860         0.744643
