19
Iteration:   630charge 0 multiplicity 1
 C        -0.067842         0.188548         0.465338
 C         1.414233        -0.017893         0.017654
 C         2.079263         0.712478        -1.232414
 C         3.318090        -0.067151        -1.143306
 C         2.786065        -1.459649        -1.490204
 C         2.168097        -1.366261        -0.051805
 O         1.510699        -2.470893         0.502727
 C         3.257629        -0.461353         0.443372
 O         2.332747         0.476785         1.032159
 H        -0.079525        -0.406467         1.461108
 H        -0.191423         1.247253         0.758256
 H        -0.865329        -0.234105        -0.300595
 H         1.651895         0.440541        -2.306919
 H         2.211156         1.813096        -1.238709
 H         4.213509         0.233526        -1.545593
 H         2.131694        -1.391033        -2.333303
 H         3.536569        -2.354190        -1.585204
 H         2.104850        -3.145891         0.857853
 H         4.252825        -0.800624         0.910784
