19
Iteration:  2935charge 0 multiplicity 1
 C        -0.061632         0.330675         0.362020
 C         1.430699         0.023769         0.021082
 C         1.999706         0.771532        -1.228550
 C         3.312056        -0.058332        -1.135150
 C         2.794711        -1.508828        -1.519733
 C         2.158833        -1.457603        -0.146155
 O         1.570089        -2.478993         0.567989
 C         3.233124        -0.544717         0.431756
 O         2.345919         0.391154         1.086523
 H        -0.279125        -0.264231         1.253432
 H        -0.126708         1.442920         0.594174
 H        -0.783787         0.139834        -0.395788
 H         1.508231         0.548104        -2.155549
 H         2.135442         1.804987        -0.860220
 H         4.258977         0.376743        -1.443167
 H         2.371524        -1.858282        -2.442337
 H         3.556611        -2.332797        -1.374583
 H         2.097211        -2.581653         1.366381
 H         4.125115        -0.716650         0.898060
