19
Iteration:    79
 C        -0.099210         0.226773         0.369071
 C         1.423328         0.017560         0.009121
 C         1.974229         0.704577        -1.220758
 C         3.305516         0.004619        -1.154997
 C         3.001555        -1.461072        -1.538514
 C         2.165737        -1.397848        -0.168022
 O         1.597479        -2.378238         0.656268
 C         3.261382        -0.527187         0.433191
 O         2.279772         0.267065         1.132439
 H        -0.372005        -0.152933         1.394335
 H        -0.161759         1.341230         0.351549
 H        -0.688129        -0.206676        -0.379150
 H         1.425908         0.296338        -2.156288
 H         2.113104         1.804333        -1.249785
 H         4.251581         0.538452        -1.689037
 H         2.443750        -1.607091        -2.518783
 H         3.747595        -2.208321        -1.398870
 H         0.602362        -2.196900         0.648141
 H         4.149675        -0.809301         0.977595
