19
Iteration:   865charge 0 multiplicity 1
 C        -0.004021         0.197938         0.326593
 C         1.440573        -0.018043         0.029285
 C         2.015591         0.784564        -1.115436
 C         3.323275        -0.086926        -1.178185
 C         2.811147        -1.520476        -1.565554
 C         2.166948        -1.492165        -0.084679
 O         1.528840        -2.389875         0.634715
 C         3.260989        -0.429984         0.432089
 O         2.336818         0.434722         1.077867
 H        -0.409694        -0.402153         1.115330
 H        -0.084364         1.260338         0.687893
 H        -0.662427        -0.029716        -0.499457
 H         1.420537         0.609439        -2.020898
 H         2.238021         1.838878        -1.022223
 H         4.105396         0.310443        -1.922677
 H         1.966724        -1.779740        -2.253674
 H         3.669445        -2.096097        -1.535059
 H         1.612188        -3.325653         0.227319
 H         4.055181        -0.484118         1.040920
