19
Iteration:  3606
 C        -0.010347         0.183343         0.358403
 C         1.403696         0.052998        -0.059438
 C         2.083885         0.796195        -1.221947
 C         3.351269        -0.064829        -1.153998
 C         2.882835        -1.464852        -1.448298
 C         2.079549        -1.357787        -0.079416
 O         1.537693        -2.482487         0.621135
 C         3.239104        -0.510515         0.441452
 O         2.288508         0.410994         1.094971
 H         0.071791        -0.257171         1.354527
 H        -0.345469         1.151437         0.443142
 H        -0.625088        -0.294932        -0.332133
 H         1.577771         0.654004        -2.259149
 H         2.534407         1.772664        -1.117125
 H         4.360773         0.178164        -1.630332
 H         2.290533        -1.572245        -2.423444
 H         3.616345        -2.259609        -1.356481
 H         0.896538        -2.964972         0.149188
 H         3.975151        -1.037984         1.020989
