19
Iteration:  4131charge 0 multiplicity 1
 C        -0.062584         0.210615         0.261011
 C         1.409876         0.013996        -0.024387
 C         1.954582         0.682039        -1.170796
 C         3.350208        -0.059919        -1.111612
 C         2.921467        -1.552321        -1.371010
 C         2.145385        -1.400310        -0.140722
 O         1.487618        -2.368418         0.554038
 C         3.258156        -0.519400         0.477570
 O         2.396272         0.486844         1.079276
 H        -0.570328        -0.614468         0.773147
 H        -0.035445         1.047606         0.925562
 H        -0.692701         0.433101        -0.553054
 H         1.466149         0.704642        -2.177008
 H         2.092706         1.754061        -0.992349
 H         4.299677         0.283086        -1.558945
 H         2.256560        -1.694676        -2.292977
 H         3.666882        -2.266861        -1.131197
 H         1.557116        -3.202018        -0.040369
 H         4.026778        -0.993344         1.217997
