19
Iteration:  1504charge 0 multiplicity 1
 C         0.031723         0.299943         0.502908
 C         1.423112         0.030693         0.103681
 C         1.963135         0.775925        -1.145367
 C         3.281423        -0.146346        -1.206754
 C         2.700287        -1.450268        -1.541689
 C         2.079544        -1.386343        -0.155694
 O         1.625053        -2.379154         0.633634
 C         3.272822        -0.622130         0.296490
 O         2.489272         0.345889         1.063252
 H        -0.265940         0.067403         1.498323
 H         0.030142         1.374542         0.576730
 H        -0.711799        -0.062818        -0.246539
 H         1.460609         0.741093        -2.135051
 H         1.967115         1.823390        -0.946987
 H         4.175075         0.153077        -1.880738
 H         2.119724        -1.533302        -2.619026
 H         3.327855        -2.355787        -1.399315
 H         0.885927        -2.894008         0.193612
 H         4.102548        -0.965281         0.912861
