19
Iteration:  2684charge 0 multiplicity 1
 C        -0.059705         0.054228         0.345274
 C         1.475933         0.114048         0.040859
 C         2.021435         0.806667        -1.234175
 C         3.295070        -0.069817        -1.180980
 C         2.826245        -1.612520        -1.376743
 C         2.199763        -1.378624        -0.076325
 O         1.391178        -2.389555         0.547979
 C         3.325754        -0.469710         0.449007
 O         2.402622         0.460808         1.064228
 H        -0.240744        -0.437393         1.342732
 H        -0.573428         1.029479         0.406949
 H        -0.444801        -0.380504        -0.544787
 H         1.384728         0.742500        -2.136353
 H         2.364259         1.846931        -0.982681
 H         3.941208         0.454217        -1.990434
 H         2.089415        -1.675938        -2.156040
 H         3.793990        -2.198639        -1.466416
 H         1.730754        -3.271362         0.461190
 H         4.172198        -0.738402         1.013253
