19
Iteration:  1381
 C         0.070486         0.156828         0.518504
 C         1.446608         0.042594         0.049616
 C         2.088000         0.764521        -1.110944
 C         3.355132        -0.088814        -1.239437
 C         2.673763        -1.550030        -1.568173
 C         2.122953        -1.404880        -0.118373
 O         1.424134        -2.364230         0.632218
 C         3.255448        -0.529675         0.329724
 O         2.386148         0.449759         0.981045
 H         0.038690        -0.563940         1.337934
 H         0.014255         1.140031         1.016659
 H        -0.676223         0.066625        -0.156054
 H         1.711902         0.860502        -2.118366
 H         2.246726         1.807334        -0.746651
 H         4.210973         0.435241        -1.785881
 H         1.867855        -1.496613        -2.367759
 H         3.422129        -2.351824        -1.564947
 H         1.824557        -3.261315         0.736651
 H         4.154309        -0.851525         0.842169
