19
Iteration:  1519charge 0 multiplicity 1
 C         0.020181         0.311714         0.537573
 C         1.453725         0.015307         0.057890
 C         2.036842         0.748466        -1.165567
 C         3.274123        -0.026709        -1.236641
 C         2.678628        -1.538888        -1.577988
 C         2.088716        -1.415764        -0.125679
 O         1.453839        -2.452668         0.692972
 C         3.367245        -0.485710         0.308737
 O         2.498647         0.341878         1.054922
 H        -0.147132        -0.332388         1.435978
 H        -0.249423         1.386047         0.562311
 H        -0.604186        -0.024463        -0.328146
 H         1.337078         0.662564        -1.967909
 H         2.316547         1.798067        -0.903112
 H         4.092574         0.420839        -1.607693
 H         1.922640        -1.589336        -2.374455
 H         3.574828        -2.152237        -1.685995
 H         1.053034        -3.065390         0.018609
 H         4.369303        -0.799135         0.652995
