19
Iteration:  2145charge 0 multiplicity 1
 C         0.005713         0.255113         0.565739
 C         1.400764         0.081733         0.045433
 C         2.033414         0.719096        -1.202358
 C         3.361440        -0.110349        -1.172387
 C         2.753985        -1.573754        -1.542579
 C         2.085654        -1.370673        -0.201105
 O         1.507131        -2.431400         0.539466
 C         3.242700        -0.508469         0.382484
 O         2.395077         0.442560         1.063064
 H        -0.316731        -0.519793         1.247566
 H        -0.139950         1.302431         1.000820
 H        -0.806649         0.101446        -0.229051
 H         1.498530         0.677990        -2.162985
 H         2.321445         1.848256        -1.199408
 H         4.303202         0.266740        -1.781779
 H         2.286773        -1.692620        -2.516815
 H         3.505963        -2.327865        -1.213836
 H         2.195637        -2.700064         1.122353
 H         4.041610        -1.208796         0.926753
