19
Iteration:  4334charge 0 multiplicity 1
 C        -0.044164         0.395226         0.310642
 C         1.349514         0.111403         0.049366
 C         2.007668         0.716048        -1.184084
 C         3.294897        -0.091263        -1.069737
 C         2.958024        -1.578671        -1.503942
 C         2.224833        -1.497215        -0.158209
 O         1.492623        -2.512719         0.508389
 C         3.217716        -0.501946         0.504194
 O         2.320238         0.450179         1.096501
 H        -0.606597        -0.345369         1.035210
 H        -0.078051         1.445803         0.750625
 H        -0.574498         0.617847        -0.612060
 H         1.551203         0.326996        -2.042130
 H         2.073740         1.812005        -1.214173
 H         4.113596         0.608579        -1.400651
 H         2.394403        -1.766750        -2.400333
 H         3.742567        -2.455284        -1.543175
 H         2.170500        -3.257863         0.657722
 H         4.033858        -0.793863         1.055209
