19
Iteration:   798
 C        -0.016181         0.172887         0.509549
 C         1.346272        -0.057854        -0.040440
 C         2.082249         0.766055        -1.198997
 C         3.391565        -0.065950        -1.139087
 C         2.781227        -1.584707        -1.511272
 C         2.180842        -1.386048        -0.155676
 O         1.478794        -2.440479         0.569591
 C         3.268097        -0.383928         0.401281
 O         2.295542         0.449650         1.037345
 H        -0.378782        -0.187920         1.439895
 H         0.151254         1.229799         0.646548
 H        -0.697478        -0.119807        -0.229662
 H         1.569863         0.767202        -2.177346
 H         2.167757         1.751753        -0.790068
 H         4.392089         0.321626        -1.573909
 H         2.094580        -1.575057        -2.377406
 H         3.566592        -2.321264        -1.465808
 H         2.090802        -3.111935         0.827854
 H         4.170714        -0.590889         0.941187
