19
Iteration:   952
 C        -0.014895         0.195390         0.427509
 C         1.431750        -0.002231         0.051570
 C         1.942008         0.768602        -1.207532
 C         3.373472        -0.045219        -1.150492
 C         2.764876        -1.541737        -1.478374
 C         2.120414        -1.404262        -0.134191
 O         1.531954        -2.511824         0.508991
 C         3.348863        -0.410168         0.423879
 O         2.380162         0.410719         1.058308
 H        -0.308485        -0.280750         1.379949
 H        -0.114504         1.341091         0.392635
 H        -0.762793        -0.081317        -0.485145
 H         1.508271         0.629852        -2.182916
 H         2.101981         1.790339        -0.967704
 H         4.246965         0.466938        -1.673018
 H         2.198988        -2.051802        -2.328907
 H         3.591748        -2.215239        -1.387169
 H         1.086681        -2.276950         1.385157
 H         4.196842        -0.598882         0.939059
