19
Iteration:  1736charge 0 multiplicity 1
 C         0.050397         0.198602         0.593585
 C         1.456377         0.033955         0.057820
 C         2.038032         0.760982        -1.154611
 C         3.266948        -0.146317        -1.254555
 C         2.657768        -1.515724        -1.635850
 C         2.104778        -1.352584        -0.169105
 O         1.422883        -2.445053         0.545357
 C         3.315681        -0.488583         0.344558
 O         2.489595         0.428854         1.105812
 H        -0.040563        -0.379949         1.523149
 H        -0.212091         1.205420         0.945694
 H        -0.650316         0.141437        -0.245162
 H         1.571127         0.803836        -2.191461
 H         2.293376         1.807149        -0.951045
 H         4.237231         0.072541        -1.638650
 H         1.753607        -1.601847        -2.295358
 H         3.406299        -2.267762        -1.769892
 H         2.099893        -2.729118         1.162786
 H         4.193039        -0.841495         0.994270
