19
Iteration:  3441charge 0 multiplicity 1
 C        -0.016131         0.233276         0.321862
 C         1.404526         0.083920         0.033796
 C         2.028950         0.786147        -1.192148
 C         3.281431        -0.045030        -1.129894
 C         2.782651        -1.573191        -1.477574
 C         2.150189        -1.448188        -0.089563
 O         1.548769        -2.527654         0.483208
 C         3.299799        -0.477925         0.444799
 O         2.410387         0.418814         1.136549
 H        -0.325660        -0.078045         1.315591
 H        -0.312792         1.270837         0.188663
 H        -0.528353        -0.227907        -0.554584
 H         1.400902         0.841798        -2.168104
 H         2.292320         1.833981        -0.869853
 H         4.201209         0.246405        -1.680329
 H         2.184684        -1.640759        -2.416941
 H         3.666246        -2.184746        -1.426300
 H         0.691111        -2.345718         0.997930
 H         4.147275        -0.853481         1.104508
