19
Iteration:  2050
 C        -0.007854         0.237764         0.460178
 C         1.497960         0.068685         0.053619
 C         2.053591         0.735810        -1.163897
 C         3.296430        -0.136283        -1.213838
 C         2.672951        -1.465367        -1.556242
 C         2.116594        -1.431046        -0.111646
 O         1.626381        -2.506233         0.595258
 C         3.241546        -0.510768         0.356111
 O         2.413902         0.414728         1.075862
 H        -0.456149        -0.041063         1.419286
 H        -0.100060         1.348320         0.479490
 H        -0.752842        -0.109671        -0.361554
 H         1.330551         0.946023        -2.011064
 H         2.403021         1.727497        -0.889237
 H         4.115817         0.295769        -1.817031
 H         1.937934        -1.569901        -2.457716
 H         3.492402        -2.293125        -1.613166
 H         0.740691        -2.212928         0.952976
 H         4.135123        -0.786202         1.009918
