19
Iteration:  3752
 C        -0.061915         0.236095         0.303310
 C         1.365259        -0.089771         0.055269
 C         2.073763         0.718162        -1.254009
 C         3.399748        -0.079661        -1.154492
 C         2.891334        -1.499886        -1.432341
 C         2.139143        -1.379953        -0.079063
 O         1.403748        -2.412213         0.575712
 C         3.277282        -0.399232         0.401032
 O         2.320173         0.431978         1.156738
 H        -0.249807        -0.579430         0.961456
 H        -0.319971         1.153454         0.814325
 H        -0.590037         0.049112        -0.647689
 H         1.503743         0.721831        -2.270182
 H         2.135040         1.902692        -1.152364
 H         4.364136         0.281756        -1.533175
 H         2.593572        -1.656043        -2.479452
 H         3.726112        -2.237718        -1.223772
 H         1.912980        -3.301432         0.390804
 H         4.249617        -0.878649         0.694674
