19
Iteration:    83charge 0 multiplicity 1
 C        -0.107722         0.224811         0.350436
 C         1.432522         0.028063        -0.003439
 C         1.969731         0.722026        -1.218023
 C         3.290871         0.002587        -1.119421
 C         2.962129        -1.486618        -1.576469
 C         2.164437        -1.393521        -0.152406
 O         1.640046        -2.347397         0.630589
 C         3.262683        -0.562945         0.484709
 O         2.291083         0.288054         1.130740
 H        -0.255323        -0.184042         1.360191
 H        -0.282494         1.340561         0.401870
 H        -0.805909        -0.185638        -0.484961
 H         1.432531         0.186851        -2.126959
 H         2.060453         1.840301        -1.337841
 H         4.137835         0.492405        -1.644842
 H         2.434575        -1.610542        -2.530512
 H         3.759225        -2.256058        -1.350098
 H         0.714076        -2.237454         0.665369
 H         4.151641        -1.016493         1.029573
