19
Iteration:  4502
 C        -0.059466         0.386778         0.355743
 C         1.422171         0.128103         0.065922
 C         2.092988         0.723050        -1.201108
 C         3.325030        -0.098668        -1.146323
 C         2.902508        -1.525751        -1.502070
 C         1.994204        -1.419947        -0.081874
 O         1.557163        -2.592732         0.564748
 C         3.246087        -0.488942         0.394914
 O         2.357520         0.433167         1.144279
 H        -0.301021         0.416795         1.419402
 H        -0.307753         1.295136        -0.234256
 H        -0.820649        -0.322333        -0.210897
 H         1.451137         0.517787        -2.021451
 H         2.232282         1.715939        -1.024988
 H         4.243541         0.364405        -1.428565
 H         2.487512        -1.528580        -2.612823
 H         3.560194        -2.357229        -1.464841
 H         1.450085        -3.311656        -0.110782
 H         4.221596        -0.857888         1.073468
