19
Iteration:  2244charge 0 multiplicity 1
 C         0.063411         0.229986         0.437061
 C         1.429865         0.044946        -0.010194
 C         2.071241         0.832581        -1.208136
 C         3.274114        -0.142483        -1.173470
 C         2.718838        -1.480195        -1.528336
 C         2.091229        -1.416949        -0.112176
 O         1.557152        -2.457478         0.681961
 C         3.300881        -0.498634         0.345743
 O         2.356327         0.417529         1.064670
 H        -0.024139        -0.318880         1.379898
 H        -0.261846         1.271918         0.592047
 H        -0.721043        -0.318482        -0.216616
 H         1.470516         0.859355        -2.154779
 H         2.289661         1.839054        -0.751157
 H         4.198162         0.272083        -1.661417
 H         2.049767        -1.484821        -2.397102
 H         3.543686        -2.289950        -1.529920
 H         1.197272        -3.237940         0.147119
 H         4.183513        -0.945575         0.984535
