19
Iteration:    64
 C        -0.013474         0.240085         0.378468
 C         1.366893        -0.105183         0.011792
 C         2.002577         0.751110        -1.217970
 C         3.391061        -0.006519        -1.180343
 C         2.959304        -1.499517        -1.492327
 C         2.146744        -1.455184        -0.109654
 O         1.502737        -2.496764         0.637234
 C         3.254687        -0.323223         0.323182
 O         2.302362         0.339093         1.115493
 H        -0.149553        -0.091249         1.390344
 H        -0.344572         1.239974         0.347973
 H        -0.774318        -0.167478        -0.361250
 H         1.477730         0.776993        -2.066953
 H         2.013368         1.690825        -0.719925
 H         4.245024         0.378299        -1.478107
 H         2.519555        -1.698919        -2.427708
 H         3.955014        -2.026125        -1.296044
 H         0.592621        -2.348373         0.581874
 H         4.225734        -0.623634         0.770618
