19
Iteration:  4000
 C        -0.042783         0.282303         0.349125
 C         1.414261         0.133688         0.003746
 C         2.088425         0.748628        -1.193608
 C         3.361379        -0.153649        -1.069312
 C         2.824816        -1.534938        -1.440843
 C         2.069694        -1.444818        -0.149442
 O         1.605878        -2.602426         0.451070
 C         3.198696        -0.449848         0.475666
 O         2.277724         0.488770         1.070936
 H        -0.187628        -0.114666         1.410502
 H        -0.241846         1.349913         0.431811
 H        -0.689755        -0.322004        -0.277110
 H         1.717155         0.480999        -2.153488
 H         2.372295         1.690828        -0.930614
 H         4.330315         0.198004        -1.586648
 H         2.453255        -1.459723        -2.489675
 H         3.568214        -2.261252        -1.486845
 H         1.313364        -2.255331         1.396362
 H         4.182585        -0.634390         0.964661
