19
Iteration:  1933
 C        -0.036711         0.247399         0.482832
 C         1.374657         0.109393         0.077250
 C         2.157284         0.776154        -1.171268
 C         3.283978        -0.119554        -1.203773
 C         2.576295        -1.507731        -1.553902
 C         2.088170        -1.390500        -0.150439
 O         1.614936        -2.418537         0.639006
 C         3.257624        -0.576036         0.305451
 O         2.442079         0.391514         1.060373
 H        -0.323442        -0.461141         1.323239
 H        -0.167585         1.305634         0.823152
 H        -0.645020        -0.139992        -0.329303
 H         1.505743         0.931874        -2.077775
 H         2.187620         1.874501        -0.889490
 H         4.297153         0.203475        -1.524535
 H         2.071794        -1.573597        -2.494275
 H         3.311499        -2.266783        -1.485694
 H         2.255176        -3.105677         0.503414
 H         4.112756        -0.967714         0.868997
