19
Iteration:  1602charge 0 multiplicity 1
 C         0.133578         0.375549         0.530628
 C         1.420940         0.018067        -0.008506
 C         1.968668         0.792635        -1.104599
 C         3.250762        -0.067155        -1.295127
 C         2.689501        -1.486890        -1.557293
 C         2.150768        -1.466697        -0.140031
 O         1.490787        -2.425387         0.607607
 C         3.283710        -0.567302         0.284128
 O         2.431270         0.304524         1.116734
 H        -0.086180        -0.347760         1.284501
 H         0.167426         1.326221         1.016771
 H        -0.699265         0.191036        -0.221528
 H         1.320489         0.706647        -2.073417
 H         2.077412         1.860685        -0.986798
 H         4.111251         0.364646        -1.899286
 H         2.193659        -1.664612        -2.504789
 H         3.465194        -2.201806        -1.636595
 H         1.657116        -2.702223         1.526009
 H         4.197784        -0.946710         0.733594
