19
Iteration:  2744
 C        -0.049914         0.276331         0.403916
 C         1.412513         0.001148        -0.021158
 C         2.006021         0.728734        -1.247652
 C         3.327158        -0.062283        -1.159750
 C         2.899480        -1.479402        -1.459085
 C         2.124179        -1.472613        -0.173027
 O         1.494807        -2.430489         0.616173
 C         3.254146        -0.453359         0.436576
 O         2.337851         0.382286         1.113633
 H        -0.390454        -0.303880         1.267770
 H        -0.007125         1.338564         0.632093
 H        -0.906070         0.214058        -0.392741
 H         1.400007         0.490550        -2.198451
 H         2.094477         1.797888        -0.987440
 H         4.165560         0.310831        -1.790635
 H         2.382698        -1.648139        -2.453546
 H         3.735785        -2.158602        -1.561284
 H         2.208561        -3.100102         0.788942
 H         4.238958        -0.797601         1.005480
