19
Iteration:   186
 C        -0.105633         0.214668         0.401074
 C         1.397134         0.015769        -0.016746
 C         1.959498         0.687888        -1.219288
 C         3.311559        -0.024668        -1.088730
 C         2.990872        -1.501050        -1.516031
 C         2.139520        -1.405946        -0.168788
 O         1.463204        -2.369920         0.578392
 C         3.273121        -0.538988         0.401464
 O         2.370329         0.385514         1.095268
 H        -0.364286        -0.400127         1.314239
 H        -0.209280         1.279340         0.698488
 H        -0.881108         0.014904        -0.361400
 H         1.553260         0.510422        -2.160433
 H         2.134394         1.749485        -1.115462
 H         4.185912         0.535781        -1.340759
 H         2.387263        -1.666026        -2.454080
 H         3.852756        -2.166395        -1.589612
 H         2.165734        -2.857846         1.104822
 H         4.173386        -0.785660         0.949120
