19
Iteration:  3161
 C        -0.021746         0.094483         0.333300
 C         1.459143        -0.002388         0.020539
 C         2.096236         0.731994        -1.234694
 C         3.344636        -0.017831        -1.167100
 C         2.846692        -1.485121        -1.491721
 C         2.098655        -1.387440        -0.117025
 O         1.346480        -2.417652         0.617823
 C         3.339671        -0.459902         0.396274
 O         2.348263         0.448265         1.120023
 H        -0.341425        -0.758085         1.004248
 H        -0.153924         1.033321         0.734946
 H        -0.560842         0.021997        -0.585324
 H         1.357786         0.813958        -2.024944
 H         2.164196         1.788090        -1.089280
 H         4.298045         0.396921        -1.623511
 H         2.262403        -1.650994        -2.338111
 H         3.591127        -2.266089        -1.239984
 H         2.080396        -3.103715         0.707922
 H         4.153324        -0.611213         1.116196
