19
Iteration:   333
 C        -0.030121         0.185553         0.414563
 C         1.396438         0.083857         0.030884
 C         2.052559         0.728608        -1.258818
 C         3.356376        -0.062605        -1.104211
 C         2.715108        -1.495701        -1.447540
 C         2.139298        -1.324895        -0.082376
 O         1.610000        -2.579749         0.572714
 C         3.291444        -0.453513         0.433475
 O         2.356790         0.493673         1.039611
 H        -0.211570        -0.616908         1.112613
 H        -0.305788         1.121863         0.878555
 H        -0.657053        -0.198827        -0.462818
 H         1.650823         0.415715        -2.226117
 H         1.915625         1.762223        -1.111048
 H         4.354060         0.472239        -1.555581
 H         2.040958        -1.450617        -2.372699
 H         3.476969        -2.337485        -1.536029
 H         1.031972        -3.089952        -0.009100
 H         4.122664        -0.796192         1.000690
