19
Iteration:  2019
 C         0.004396         0.229724         0.607106
 C         1.432921         0.101170        -0.028540
 C         2.026895         0.793927        -1.280661
 C         3.345774        -0.118053        -1.159746
 C         2.745480        -1.491791        -1.489956
 C         2.121656        -1.418191        -0.148498
 O         1.608184        -2.480624         0.603983
 C         3.226217        -0.534511         0.348211
 O         2.380111         0.365328         1.026400
 H        -0.154072        -0.236227         1.633576
 H        -0.047494         1.265709         0.929963
 H        -0.884144         0.340561        -0.084052
 H         1.367069         0.716225        -2.266399
 H         2.292920         1.852021        -1.050744
 H         4.311546         0.209729        -1.523709
 H         2.127022        -1.689080        -2.488830
 H         3.512103        -2.352627        -1.548450
 H         0.653615        -2.421814         0.514281
 H         4.110398        -0.758583         0.961291
