19
Iteration:  3899charge 0 multiplicity 1
 C        -0.105960         0.221792         0.362073
 C         1.419308         0.034012         0.008430
 C         2.177398         0.771484        -1.155452
 C         3.433797        -0.165604        -1.134491
 C         2.840405        -1.540837        -1.476812
 C         2.083743        -1.405293        -0.140904
 O         1.559100        -2.500262         0.500529
 C         3.194888        -0.456658         0.456555
 O         2.261208         0.499412         1.067440
 H        -0.524275        -0.691533         0.942540
 H        -0.334680         1.168080         0.810854
 H        -0.628976         0.082597        -0.573382
 H         1.472508         0.841128        -2.030876
 H         2.423738         1.865439        -1.014428
 H         4.301612         0.308648        -1.715204
 H         2.125839        -1.598131        -2.304868
 H         3.400852        -2.448888        -1.349384
 H         1.971258        -2.484752         1.380052
 H         4.076496        -0.701437         1.070560
