19
Iteration:  3706charge 0 multiplicity 1
 C        -0.064620         0.231515         0.330622
 C         1.399534         0.057322        -0.045525
 C         2.101781         0.773309        -1.293475
 C         3.398910        -0.125453        -1.076248
 C         2.876685        -1.478882        -1.440858
 C         2.037059        -1.402940        -0.120815
 O         1.556717        -2.563402         0.572278
 C         3.209876        -0.475995         0.449991
 O         2.284927         0.427644         1.114767
 H        -0.541912        -0.324488         1.187174
 H         0.070599         1.233092         0.619039
 H        -0.657707         0.336249        -0.535201
 H         1.558041         0.763290        -2.297913
 H         2.100284         1.879890        -1.149835
 H         4.271924         0.433311        -1.602386
 H         2.276780        -1.463111        -2.432052
 H         3.523454        -2.340029        -1.436228
 H         2.301990        -2.727767         1.226828
 H         4.047412        -0.737537         1.125066
