19
Iteration:  3345charge 0 multiplicity 1
 C        -0.014250         0.156107         0.311421
 C         1.477414         0.031761         0.039617
 C         1.983378         0.750462        -1.163652
 C         3.361891        -0.123965        -1.166447
 C         2.787332        -1.520816        -1.446103
 C         2.118000        -1.356617        -0.123345
 O         1.557991        -2.477193         0.470102
 C         3.257729        -0.480909         0.458703
 O         2.407283         0.465164         1.107647
 H        -0.455759        -0.642931         1.053320
 H        -0.252802         1.051083         0.864106
 H        -0.580107         0.332402        -0.613565
 H         1.456660         0.617423        -2.120773
 H         2.049824         1.751778        -0.858774
 H         4.194154         0.332563        -1.792058
 H         2.030965        -1.707837        -2.267048
 H         3.576762        -2.162084        -1.298724
 H         0.820135        -2.060651         1.049856
 H         4.002407        -0.958912         1.153980
