19
Iteration:  1668charge 0 multiplicity 1
 C         0.061933         0.354466         0.571297
 C         1.456672        -0.005895         0.039397
 C         2.100216         0.801856        -1.158781
 C         3.228855        -0.101238        -1.194727
 C         2.517872        -1.493334        -1.540653
 C         2.107470        -1.403748        -0.025270
 O         1.616885        -2.596728         0.473375
 C         3.316499        -0.504645         0.326150
 O         2.485818         0.401748         1.054377
 H        -0.234803         0.009020         1.535859
 H        -0.199632         1.404125         0.589401
 H        -0.468245        -0.146181        -0.339442
 H         1.384594         0.880259        -2.052004
 H         2.070480         1.833040        -0.986064
 H         4.102157         0.177879        -1.729342
 H         1.779559        -1.520068        -2.325694
 H         3.219594        -2.226367        -1.756790
 H         0.907102        -2.333824         1.062510
 H         4.268440        -0.902196         0.687860
