19
Iteration:  4661
 C        -0.081097         0.525814         0.391862
 C         1.389207         0.121631         0.016358
 C         2.122084         0.736658        -1.218094
 C         3.339841        -0.151832        -1.122684
 C         2.832454        -1.460284        -1.514277
 C         2.119026        -1.431262        -0.092108
 O         1.651044        -2.585738         0.593126
 C         3.192742        -0.551049         0.437912
 O         2.302236         0.326323         1.068795
 H        -0.526635        -0.341685         0.919482
 H        -0.177466         1.331716         1.105625
 H        -0.766521         0.811247        -0.373426
 H         1.550931         0.616363        -2.139814
 H         2.230475         1.809472        -1.007701
 H         4.352617         0.112671        -1.549479
 H         2.211397        -1.513970        -2.341594
 H         3.490769        -2.321954        -1.600119
 H         1.280161        -3.246422        -0.017064
 H         4.068949        -0.753601         0.972075
