19
Iteration:   423charge 0 multiplicity 1
 C        -0.038754         0.164573         0.409012
 C         1.434492         0.051476        -0.025785
 C         2.095907         0.843525        -1.175990
 C         3.313785        -0.109898        -1.146543
 C         2.715808        -1.465919        -1.514485
 C         2.114969        -1.393735        -0.071448
 O         1.640807        -2.543898         0.534735
 C         3.260292        -0.441512         0.399726
 O         2.317198         0.384727         1.050209
 H        -0.221175        -0.380094         1.346052
 H        -0.278717         1.167895         0.678301
 H        -0.830303        -0.198323        -0.294189
 H         1.668309         0.730612        -2.198299
 H         2.292980         1.877768        -0.874394
 H         4.199771         0.172938        -1.580298
 H         2.193363        -1.551697        -2.454251
 H         3.313698        -2.436388        -1.426962
 H         1.305173        -2.143600         1.401019
 H         4.208167        -0.644326         0.884601
