19
Iteration:  3850
 C        -0.100268         0.297574         0.293815
 C         1.394124         0.020912         0.007710
 C         2.028259         0.658749        -1.160124
 C         3.381062        -0.092087        -1.130765
 C         2.922892        -1.486730        -1.525782
 C         2.094449        -1.382084        -0.102583
 O         1.469634        -2.453824         0.528648
 C         3.319603        -0.461684         0.412271
 O         2.325197         0.382378         1.155178
 H        -0.379224        -0.045291         1.241591
 H        -0.249589         1.381168         0.160004
 H        -0.705520        -0.235688        -0.460035
 H         1.468175         0.568082        -2.113085
 H         1.925882         1.756849        -0.995476
 H         4.315269         0.281922        -1.514081
 H         2.508235        -1.565912        -2.551323
 H         3.675620        -2.296834        -1.279174
 H         2.122597        -2.856972         1.185516
 H         4.048548        -0.666584         1.190703
