19
Iteration:  3956charge 0 multiplicity 1
 C        -0.085824         0.238124         0.284202
 C         1.399697        -0.026746         0.002619
 C         2.064636         0.730709        -1.191802
 C         3.353351        -0.127214        -1.090092
 C         2.865251        -1.472483        -1.541247
 C         2.139149        -1.400882        -0.066087
 O         1.533848        -2.425656         0.564713
 C         3.355366        -0.468947         0.391431
 O         2.326697         0.400236         1.135745
 H        -0.592842        -0.628000         0.888200
 H        -0.373174         1.160134         0.817054
 H        -0.592766         0.277779        -0.700504
 H         1.414803         0.548278        -2.026545
 H         2.207819         1.700212        -0.859871
 H         4.258267         0.348763        -1.633704
 H         2.255065        -1.843848        -2.393656
 H         3.546615        -2.233912        -1.383951
 H         0.653816        -2.120580         0.987860
 H         4.295544        -0.640485         0.971505
