19
Iteration:  1028
 C        -0.101386         0.273882         0.377543
 C         1.422507         0.012623         0.085827
 C         2.008662         0.825710        -1.187530
 C         3.300260        -0.099992        -1.307988
 C         2.799640        -1.557721        -1.581666
 C         2.153840        -1.436211        -0.042168
 O         1.540609        -2.449801         0.639749
 C         3.302418        -0.476854         0.480699
 O         2.411934         0.410046         1.107033
 H        -0.514695        -0.420510         1.106889
 H        -0.315413         1.322802         0.639357
 H        -0.693015         0.031209        -0.579313
 H         1.342348         0.727928        -2.007995
 H         2.122174         1.880684        -1.056970
 H         4.198347         0.257884        -1.867064
 H         2.176662        -1.524519        -2.420368
 H         3.588104        -2.303296        -1.535091
 H         1.975736        -3.212251         0.272721
 H         4.183524        -0.784801         0.953565
