19
Iteration:  2834
 C        -0.123852         0.161829         0.362447
 C         1.385836         0.098328        -0.027110
 C         2.083803         0.759627        -1.208732
 C         3.324567        -0.066763        -1.222320
 C         2.808393        -1.537238        -1.492204
 C         2.150842        -1.380971        -0.129903
 O         1.540531        -2.441749         0.569625
 C         3.255263        -0.515782         0.430986
 O         2.419151         0.400941         1.128966
 H        -0.219653        -0.526561         1.256564
 H        -0.417219         1.143082         0.651898
 H        -0.845017        -0.365162        -0.324776
 H         1.483981         0.953128        -2.117175
 H         2.276326         1.796198        -0.883198
 H         4.367712         0.213237        -1.506153
 H         2.167357        -1.713544        -2.327032
 H         3.692341        -2.275148        -1.523335
 H         1.209169        -2.250110         1.448274
 H         4.248459        -0.716255         0.924920
