19
Iteration:  3982charge 0 multiplicity 1
 C        -0.025548         0.239230         0.344550
 C         1.414861         0.063627        -0.014021
 C         2.103110         0.804357        -1.249311
 C         3.376630        -0.091250        -1.103358
 C         2.824312        -1.512718        -1.481784
 C         2.095432        -1.377909        -0.048433
 O         1.610959        -2.569132         0.502279
 C         3.204110        -0.526815         0.465204
 O         2.316282         0.472484         1.067905
 H        -0.278399        -0.379898         1.211197
 H        -0.342147         1.333792         0.599430
 H        -0.689197         0.020918        -0.582768
 H         1.449348         0.694072        -2.155750
 H         2.244018         1.917485        -0.992230
 H         4.240986         0.319669        -1.501990
 H         2.164468        -1.942207        -2.212655
 H         3.660280        -2.336703        -1.360893
 H         0.797869        -2.484852         1.116253
 H         3.943555        -0.944275         1.138166
