19
Iteration:  3106
 C        -0.003634         0.318176         0.322010
 C         1.324995         0.008785        -0.068539
 C         2.099493         0.745132        -1.210463
 C         3.381668        -0.106268        -1.128546
 C         2.762214        -1.414706        -1.504779
 C         2.112160        -1.378597        -0.083872
 O         1.687531        -2.591847         0.568655
 C         3.198772        -0.512703         0.381047
 O         2.267305         0.398242         1.133239
 H        -0.265715        -0.215093         1.268436
 H        -0.055588         1.318282         0.585614
 H        -0.674255         0.157236        -0.539855
 H         1.701967         0.499933        -2.193149
 H         2.215879         1.761325        -0.814153
 H         4.296638         0.234353        -1.655068
 H         2.096610        -1.449586        -2.323850
 H         3.417568        -2.285954        -1.428854
 H         1.441238        -2.359301         1.569320
 H         3.975442        -0.654599         1.154250
