19
Iteration:  4009
 C        -0.088387         0.290429         0.356754
 C         1.360500         0.064530        -0.012037
 C         2.115065         0.736320        -1.209601
 C         3.410751        -0.132402        -1.037178
 C         2.866059        -1.547574        -1.488133
 C         2.098610        -1.401972        -0.089426
 O         1.567247        -2.573315         0.439789
 C         3.204711        -0.403651         0.440734
 O         2.326329         0.437563         1.085068
 H        -0.176711         0.064421         1.418350
 H        -0.349154         1.292815         0.237061
 H        -0.792030        -0.182184        -0.212659
 H         1.532726         0.631760        -2.137358
 H         2.279615         1.814083        -1.087398
 H         4.287929         0.398684        -1.561026
 H         2.137455        -1.683389        -2.317749
 H         3.541372        -2.344513        -1.513011
 H         1.534971        -2.556216         1.465107
 H         4.034027        -0.702053         1.111801
