19
Iteration:  3779
 C        -0.039003         0.121880         0.281775
 C         1.391807         0.052911         0.017051
 C         2.045178         0.833480        -1.204504
 C         3.364489        -0.132222        -1.089834
 C         2.816886        -1.555669        -1.440608
 C         2.193977        -1.382735        -0.086779
 O         1.464640        -2.382908         0.535446
 C         3.252093        -0.521481         0.607156
 O         2.360123         0.511676         1.024567
 H        -0.184198        -0.742347         1.048862
 H        -0.420380         1.109877         0.617440
 H        -0.562142        -0.366352        -0.579016
 H         1.493602         0.671360        -2.093872
 H         2.204601         1.870072        -1.274102
 H         4.263001         0.258864        -1.659990
 H         2.207641        -1.487207        -2.352653
 H         3.498531        -2.396057        -1.502575
 H         1.763575        -3.267502         0.105178
 H         4.165727        -0.857835         1.068401
