19
Iteration:  1211charge 0 multiplicity 1
 C        -0.000215         0.213713         0.486573
 C         1.445247         0.014849         0.054847
 C         2.029387         0.786129        -1.212074
 C         3.296490        -0.093956        -1.162403
 C         2.664539        -1.504523        -1.545100
 C         2.081215        -1.409702        -0.142382
 O         1.582393        -2.415681         0.593183
 C         3.358657        -0.520856         0.349166
 O         2.437533         0.375534         1.061367
 H        -0.278281        -0.582083         1.135784
 H        -0.252992         1.209289         0.803177
 H        -0.778539         0.038953        -0.346342
 H         1.278220         0.580410        -2.081983
 H         2.179585         1.861244        -0.998172
 H         4.295192         0.149428        -1.647255
 H         2.087531        -1.462483        -2.485151
 H         3.462392        -2.295835        -1.466250
 H         0.863929        -2.001651         1.170216
 H         4.263716        -0.851194         0.839139
