19
Iteration:  3578charge 0 multiplicity 1
 C        -0.083537         0.276353         0.357945
 C         1.338190         0.044015        -0.030366
 C         2.026564         0.764800        -1.172538
 C         3.363300        -0.064889        -1.072477
 C         2.826905        -1.589920        -1.448980
 C         2.133204        -1.420932        -0.104363
 O         1.581514        -2.496858         0.525262
 C         3.267602        -0.478526         0.433875
 O         2.342226         0.507973         1.089549
 H        -0.308907        -0.390327         1.248823
 H        -0.194942         1.400670         0.695954
 H        -0.776879         0.126368        -0.554392
 H         1.785191         0.440063        -2.166317
 H         2.505719         1.729275        -0.878891
 H         4.222449         0.178800        -1.651628
 H         2.172318        -1.718270        -2.303462
 H         3.707483        -2.296158        -1.438606
 H         1.441791        -3.246343        -0.005869
 H         4.130160        -0.930870         1.006003
