19
Iteration:  3383
 C        -0.031404         0.362815         0.415723
 C         1.382494         0.049679        -0.052103
 C         2.053059         0.766668        -1.223985
 C         3.346201        -0.028305        -1.161756
 C         2.799616        -1.480073        -1.464570
 C         2.171919        -1.462728        -0.128724
 O         1.650040        -2.589945         0.556663
 C         3.194532        -0.546319         0.467743
 O         2.314102         0.411318         1.076614
 H        -0.297638        -0.211896         1.227101
 H         0.030982         1.453579         0.663687
 H        -0.741073         0.057783        -0.348297
 H         1.361174         0.612154        -2.075788
 H         2.165097         1.869251        -0.901673
 H         4.260791         0.229608        -1.625779
 H         2.399363        -1.612972        -2.430789
 H         3.629115        -2.314133        -1.519017
 H         0.739859        -2.457426         0.831823
 H         3.968849        -0.879938         1.157146
