19
Iteration:  1858charge 0 multiplicity 1
 C        -0.034512         0.253376         0.604620
 C         1.379243         0.070376         0.144732
 C         2.090386         0.753092        -1.220328
 C         3.299434        -0.198811        -1.194350
 C         2.692137        -1.499483        -1.592327
 C         2.075660        -1.361865        -0.111724
 O         1.583475        -2.549140         0.479234
 C         3.282699        -0.527396         0.311756
 O         2.516095         0.508552         1.073117
 H        -0.042032        -0.239866         1.660598
 H        -0.308633         1.355704         0.870377
 H        -0.736689        -0.227690        -0.115760
 H         1.382545         0.714772        -2.090316
 H         2.259152         1.904197        -1.196965
 H         4.219045         0.327999        -1.592275
 H         1.923908        -1.802836        -2.301158
 H         3.369985        -2.330735        -1.519197
 H         0.641487        -2.313308         0.672847
 H         4.223453        -0.778480         0.801783
