19
Iteration:  1979charge 0 multiplicity 1
 C        -0.020532         0.278897         0.505143
 C         1.417728         0.045258         0.097505
 C         1.936254         0.713913        -1.189783
 C         3.285291        -0.094885        -1.186945
 C         2.764608        -1.549972        -1.464356
 C         2.119954        -1.375656        -0.106817
 O         1.513164        -2.447402         0.561804
 C         3.343380        -0.488140         0.331348
 O         2.504040         0.405592         1.054807
 H        -0.519116        -0.443289         1.179226
 H         0.024121         1.294096         0.991418
 H        -0.519911         0.234965        -0.419084
 H         1.512615         0.676283        -2.135135
 H         2.011969         1.832261        -1.207731
 H         4.120999         0.287745        -1.739342
 H         2.070793        -1.696643        -2.209674
 H         3.572524        -2.211442        -1.534653
 H         0.997062        -3.037466        -0.055936
 H         4.234130        -0.785490         0.779905
