19
Iteration:   307charge 0 multiplicity 1
 C        -0.062237         0.197116         0.414717
 C         1.352510         0.061994        -0.010155
 C         2.068531         0.776464        -1.207970
 C         3.302610        -0.103913        -1.143213
 C         2.861742        -1.484777        -1.517874
 C         2.111624        -1.384447        -0.188564
 O         1.692153        -2.471430         0.636716
 C         3.181974        -0.517863         0.415857
 O         2.341137         0.430347         1.074764
 H        -0.205385        -0.439880         1.353436
 H        -0.181964         1.262726         0.789650
 H        -0.759980        -0.167324        -0.291256
 H         1.560138         0.625493        -2.141892
 H         2.117244         1.870548        -0.971851
 H         4.266657         0.266419        -1.542113
 H         2.279635        -1.651686        -2.488716
 H         3.722271        -2.122383        -1.509160
 H         0.735524        -2.748351         0.622602
 H         4.072370        -0.936711         0.983236
