19
Iteration:   622
 C        -0.096224         0.167993         0.501213
 C         1.402620         0.086273        -0.012122
 C         2.086773         0.691172        -1.255388
 C         3.391876        -0.107303        -1.124194
 C         2.789735        -1.478974        -1.495614
 C         2.135852        -1.378288        -0.130695
 O         1.521907        -2.492138         0.539656
 C         3.225549        -0.456970         0.414063
 O         2.361127         0.468708         1.065690
 H        -0.172310        -0.473635         1.427389
 H        -0.430349         1.246800         0.705689
 H        -0.839575        -0.188130        -0.258666
 H         1.525132         0.674170        -2.266088
 H         2.169407         1.786593        -1.041483
 H         4.259351         0.296943        -1.614628
 H         2.137936        -1.446225        -2.407432
 H         3.525958        -2.329054        -1.633731
 H         2.255451        -2.983368         0.882955
 H         4.137466        -0.659162         1.092334
