19
Iteration:   462charge 0 multiplicity 1
 C        -0.063060         0.253188         0.331282
 C         1.396500         0.031776         0.154239
 C         1.942106         0.703754        -1.147274
 C         3.255636        -0.124154        -1.183400
 C         2.837909        -1.476158        -1.514931
 C         2.134918        -1.394205        -0.153018
 O         1.596422        -2.545200         0.526298
 C         3.339106        -0.463235         0.406490
 O         2.444029         0.437549         1.123237
 H        -0.348683        -0.278250         1.240668
 H        -0.345825         1.351161         0.382481
 H        -0.531958         0.029438        -0.677209
 H         1.243387         0.614030        -1.997552
 H         2.146994         1.826235        -1.096710
 H         4.215534         0.428592        -1.721256
 H         2.217059        -1.698595        -2.459912
 H         3.569208        -2.288999        -1.375234
 H         0.748164        -2.291925         0.966712
 H         4.264833        -0.514042         0.969089
