19
Iteration:  4861
 C        -0.009025         0.289340         0.433028
 C         1.406068         0.133668         0.042336
 C         2.212663         0.798690        -1.190939
 C         3.352044        -0.103465        -1.182452
 C         2.693659        -1.503053        -1.511872
 C         2.101066        -1.423154        -0.158236
 O         1.509831        -2.448940         0.592097
 C         3.195911        -0.560471         0.377517
 O         2.392324         0.361654         1.133707
 H        -0.356480        -0.676220         0.824986
 H        -0.023224         0.934955         1.313928
 H        -0.748844         0.650508        -0.350041
 H         1.583261         0.744849        -2.156716
 H         2.243197         1.925122        -0.895680
 H         4.293669         0.223849        -1.514574
 H         2.133533        -1.615717        -2.566387
 H         3.474078        -2.401673        -1.362541
 H         1.364574        -3.068056        -0.115826
 H         4.108075        -1.061847         0.844314
