19
Iteration:  4086
 C         0.007358         0.103284         0.268145
 C         1.442886         0.034810        -0.077861
 C         2.153814         0.778049        -1.164105
 C         3.400122        -0.115526        -1.129081
 C         2.730789        -1.529043        -1.494513
 C         2.125189        -1.369406        -0.067540
 O         1.482879        -2.365090         0.598848
 C         3.206915        -0.488369         0.535481
 O         2.289295         0.465879         1.078654
 H        -0.119727        -0.521099         1.157845
 H        -0.431196         1.029684         0.453588
 H        -0.544225        -0.394719        -0.432043
 H         1.736614         0.864943        -2.204880
 H         2.241119         1.840204        -0.880769
 H         4.382285         0.357354        -1.472391
 H         1.985866        -1.534520        -2.347007
 H         3.460557        -2.280094        -1.531423
 H         1.917777        -3.201162         0.305022
 H         4.139392        -0.895428         1.011644
