19
Iteration:  4624charge 0 multiplicity 1
 C        -0.025807         0.484938         0.338429
 C         1.369854         0.054187         0.036233
 C         2.015041         0.740855        -1.188646
 C         3.324255        -0.105866        -1.183987
 C         2.808868        -1.512980        -1.401840
 C         2.110611        -1.414057        -0.067871
 O         1.655351        -2.581619         0.448832
 C         3.231459        -0.551332         0.504863
 O         2.363099         0.364506         1.071873
 H        -0.534739        -0.451081         0.623982
 H        -0.002255         1.151164         1.246079
 H        -0.535905         0.900575        -0.549987
 H         1.433869         0.524694        -2.055874
 H         2.198092         1.754396        -1.056893
 H         4.292327         0.219796        -1.515619
 H         2.167017        -1.640761        -2.353334
 H         3.688802        -2.122967        -1.373196
 H         0.735158        -2.457344         0.582409
 H         4.190846        -0.926808         1.015057
