19
Iteration:  3793charge 0 multiplicity 1
 C        -0.087432         0.055144         0.326881
 C         1.440979         0.058020        -0.041417
 C         2.146602         0.730504        -1.224381
 C         3.407706        -0.142138        -1.126341
 C         2.789011        -1.487796        -1.485113
 C         2.139282        -1.362324        -0.056217
 O         1.456428        -2.421819         0.555901
 C         3.240749        -0.443720         0.461819
 O         2.339569         0.535859         1.115816
 H        -0.288745        -0.429969         1.352781
 H        -0.501031         1.056339         0.430182
 H        -0.650225        -0.280040        -0.530212
 H         1.671598         0.737692        -2.223981
 H         2.236503         1.704550        -0.768018
 H         4.487208         0.157029        -1.413933
 H         2.013274        -1.634198        -2.341230
 H         3.548466        -2.243804        -1.572259
 H         1.749699        -3.249899         0.172113
 H         4.006519        -0.690065         1.228212
