19
Iteration:  2946
 C        -0.027954         0.323856         0.358565
 C         1.363447         0.043414         0.007873
 C         2.016765         0.693107        -1.156525
 C         3.336984        -0.063019        -1.150657
 C         2.847958        -1.479579        -1.512306
 C         2.147566        -1.418781        -0.116843
 O         1.495041        -2.490927         0.614104
 C         3.293773        -0.443604         0.355216
 O         2.352949         0.310910         1.093799
 H        -0.536986        -0.269147         1.121915
 H        -0.239380         1.403230         0.637914
 H        -0.475758         0.107384        -0.574492
 H         1.404074         0.506151        -2.027864
 H         2.053836         1.803777        -1.273806
 H         4.243758         0.271420        -1.662630
 H         2.188950        -1.340922        -2.356752
 H         3.720060        -2.190161        -1.515331
 H         2.120224        -2.707239         1.403664
 H         4.141224        -0.740843         0.839683
