19
Iteration:  2045
 C         0.017209         0.242974         0.477426
 C         1.461143         0.040651         0.003149
 C         2.065154         0.710638        -1.134757
 C         3.299096        -0.120479        -1.216208
 C         2.685335        -1.492002        -1.563706
 C         2.098848        -1.415021        -0.128975
 O         1.619665        -2.502097         0.603019
 C         3.276522        -0.491984         0.360874
 O         2.382244         0.422980         1.072818
 H        -0.294398        -0.032292         1.510786
 H        -0.171771         1.340812         0.608864
 H        -0.681480         0.020526        -0.272771
 H         1.616568         0.914637        -2.087742
 H         2.340329         1.742421        -0.806118
 H         4.084804         0.303329        -1.850788
 H         1.982938        -1.620128        -2.313862
 H         3.411218        -2.209611        -1.781610
 H         0.713761        -2.304966         0.910878
 H         4.071271        -0.760458         1.034927
