19
Iteration:  1382charge 0 multiplicity 1
 C         0.080402         0.158547         0.518093
 C         1.449570         0.037822         0.054566
 C         2.087900         0.766712        -1.107316
 C         3.344715        -0.093064        -1.234911
 C         2.676732        -1.552894        -1.570017
 C         2.130623        -1.403973        -0.114605
 O         1.424646        -2.359864         0.626560
 C         3.243935        -0.530840         0.325143
 O         2.386681         0.450625         0.979919
 H         0.029562        -0.525158         1.352272
 H         0.003522         1.108795         1.060534
 H        -0.666135         0.046762        -0.195151
 H         1.716524         0.871129        -2.111846
 H         2.204689         1.783874        -0.772881
 H         4.237819         0.425168        -1.792257
 H         1.881164        -1.488953        -2.429978
 H         3.416335        -2.336160        -1.537078
 H         1.830023        -3.217107         0.767088
 H         4.127364        -0.868784         0.841149
