19
Iteration:  3462charge 0 multiplicity 1
 C        -0.025313         0.091555         0.325599
 C         1.426739         0.046732         0.040670
 C         2.113496         0.754400        -1.123437
 C         3.384496        -0.090482        -1.146295
 C         2.776736        -1.466640        -1.480499
 C         2.077312        -1.351547        -0.105922
 O         1.471970        -2.455782         0.485554
 C         3.300274        -0.493591         0.371173
 O         2.369274         0.445242         1.082071
 H        -0.178754        -0.309811         1.255953
 H        -0.255974         1.142655         0.406044
 H        -0.585103        -0.263205        -0.568060
 H         1.488043         0.486425        -2.040957
 H         2.166842         1.823070        -0.769923
 H         4.378743         0.189733        -1.529220
 H         2.031301        -1.563403        -2.249548
 H         3.411351        -2.346708        -1.281875
 H         1.169242        -2.380355         1.411447
 H         4.205264        -0.659159         1.041569
