19
Iteration:  3792
 C        -0.085771         0.062266         0.324135
 C         1.446247         0.055155        -0.040743
 C         2.139200         0.745996        -1.231406
 C         3.406227        -0.153754        -1.127498
 C         2.789746        -1.489532        -1.489585
 C         2.145633        -1.368142        -0.045169
 O         1.461217        -2.416721         0.548940
 C         3.238457        -0.451171         0.470388
 O         2.341002         0.540696         1.114449
 H        -0.303964        -0.458521         1.353070
 H        -0.530141         1.052211         0.455285
 H        -0.656447        -0.297953        -0.533660
 H         1.655284         0.714251        -2.200250
 H         2.205401         1.667097        -0.761858
 H         4.489568         0.175294        -1.408336
 H         2.020711        -1.633308        -2.342802
 H         3.545661        -2.233398        -1.570425
 H         1.727961        -3.224367         0.181484
 H         3.986582        -0.709479         1.235052
