19
Iteration:  4979
 C        -0.018116         0.465163         0.428848
 C         1.405577         0.073267         0.034521
 C         2.067424         0.822311        -1.106245
 C         3.322168        -0.084501        -1.143636
 C         2.744176        -1.459803        -1.559596
 C         2.091163        -1.482318        -0.253705
 O         1.532116        -2.550450         0.515281
 C         3.216569        -0.646117         0.363844
 O         2.437794         0.291255         1.189703
 H        -0.201174         0.750075         1.462721
 H        -0.267643         1.503523         0.081189
 H        -0.959572        -0.084236        -0.023713
 H         1.610904         0.826336        -2.153453
 H         2.278643         1.863596        -0.764824
 H         4.247617         0.190685        -1.622679
 H         2.260205        -1.426157        -2.540478
 H         3.441149        -2.242844        -1.803329
 H         1.901822        -2.605284         1.415387
 H         4.155138        -1.063798         0.841532
