19
Iteration:  3255charge 0 multiplicity 1
 C        -0.061065         0.310796         0.266020
 C         1.398397         0.023904         0.109901
 C         1.995595         0.634231        -1.158766
 C         3.403886        -0.083656        -1.130898
 C         2.805310        -1.454099        -1.484888
 C         2.095786        -1.400975        -0.130635
 O         1.551307        -2.513517         0.553590
 C         3.285753        -0.425328         0.402067
 O         2.327100         0.395661         1.124550
 H        -0.304262         0.034670         1.273753
 H        -0.065512         1.456168         0.255783
 H        -0.766617        -0.036691        -0.565041
 H         1.432690         0.683578        -2.065001
 H         2.202360         1.691200        -1.100795
 H         4.268723         0.373953        -1.536851
 H         2.120728        -1.551594        -2.358615
 H         3.490708        -2.235348        -1.353296
 H         2.187343        -3.304496         0.482773
 H         4.224922        -0.652505         0.989635
