19
Iteration:  4306
 C        -0.006422         0.306600         0.349027
 C         1.352323        -0.034346         0.023472
 C         2.098701         0.700856        -1.228813
 C         3.344594        -0.091870        -1.117593
 C         2.910429        -1.483275        -1.352620
 C         2.048686        -1.396874        -0.104997
 O         1.455569        -2.533986         0.495925
 C         3.294478        -0.376098         0.454548
 O         2.306135         0.407352         1.099409
 H        -0.321289         0.148905         1.341156
 H         0.036902         1.394724         0.327299
 H        -0.700790        -0.002784        -0.464508
 H         1.691418         0.425651        -2.279079
 H         2.143251         1.782246        -1.014414
 H         4.136986         0.426784        -1.679198
 H         2.399466        -1.664297        -2.366932
 H         3.619374        -2.264235        -1.356767
 H         1.957660        -3.170308        -0.041649
 H         4.261068        -0.718135         1.080762
