19
Iteration:  3017
 C        -0.043466         0.092020         0.467071
 C         1.406770         0.058820        -0.052498
 C         2.156751         0.794885        -1.236702
 C         3.399931        -0.157622        -1.150226
 C         2.818838        -1.495456        -1.517361
 C         2.071195        -1.422079        -0.106936
 O         1.483647        -2.413785         0.620349
 C         3.204721        -0.392514         0.444809
 O         2.371680         0.463669         1.083709
 H        -0.185184        -0.529189         1.386455
 H        -0.368316         1.053700         0.810598
 H        -0.780851        -0.262434        -0.392738
 H         1.695990         0.695195        -2.260411
 H         2.271814         1.851565        -1.113117
 H         4.260805         0.121308        -1.729246
 H         2.049853        -1.442288        -2.312581
 H         3.557398        -2.240693        -1.602567
 H         1.469372        -3.230853        -0.021562
 H         4.101263        -0.708758         1.139750
