19
Iteration:  3593charge 0 multiplicity 1
 C        -0.069411         0.234298         0.406798
 C         1.403313         0.149787         0.005264
 C         2.148262         0.826399        -1.253356
 C         3.353472        -0.122001        -1.124493
 C         2.860726        -1.543022        -1.482603
 C         2.139952        -1.459560        -0.123034
 O         1.535383        -2.519348         0.619545
 C         3.195039        -0.471643         0.464856
 O         2.324165         0.424780         1.039543
 H        -0.335535        -0.367450         1.252817
 H        -0.414593         1.270853         0.594179
 H        -0.702055        -0.239719        -0.386725
 H         1.481490         0.771657        -2.121704
 H         2.080169         1.886038        -0.974383
 H         4.342097         0.326131        -1.361127
 H         2.297034        -1.703008        -2.422824
 H         3.723608        -2.314233        -1.412917
 H         1.205500        -3.106731        -0.141217
 H         4.129484        -0.546066         1.052823
