19
Iteration:  2189
 C         0.043683         0.269422         0.403163
 C         1.433657        -0.031216         0.088481
 C         2.044874         0.728285        -1.174787
 C         3.291751        -0.064934        -1.241902
 C         2.760197        -1.498839        -1.484822
 C         2.073970        -1.429918        -0.106181
 O         1.430298        -2.457092         0.599028
 C         3.319765        -0.463720         0.377851
 O         2.459777         0.425143         1.050893
 H        -0.358354        -0.505127         1.045427
 H         0.063377         1.222390         1.021069
 H        -0.659627         0.392065        -0.521140
 H         1.290054         0.564356        -1.958789
 H         1.806443         1.819901        -0.998705
 H         4.164764         0.538164        -1.702396
 H         1.980589        -1.667478        -2.276449
 H         3.543389        -2.329186        -1.542940
 H         1.943095        -3.239837         0.491674
 H         4.305027        -0.558455         1.043574
