19
Iteration:  4819charge 0 multiplicity 1
 C        -0.047568         0.569013         0.373786
 C         1.437756         0.038027         0.014372
 C         2.030039         0.685560        -1.143014
 C         3.327008        -0.056134        -1.089826
 C         2.708772        -1.506839        -1.556116
 C         2.103797        -1.443317        -0.119327
 O         1.650798        -2.601667         0.514001
 C         3.265963        -0.563419         0.403237
 O         2.370982         0.331831         1.183365
 H        -0.499259        -0.058389         1.123120
 H         0.053741         1.580571         0.746407
 H        -0.557454         0.553146        -0.556052
 H         1.552075         0.763133        -2.186451
 H         2.358882         1.765022        -1.035770
 H         4.182316         0.341622        -1.564530
 H         1.966456        -1.746868        -2.276813
 H         3.546782        -2.178437        -1.683956
 H         0.808433        -2.770168         0.137418
 H         4.269829        -0.784550         0.890914
