19
Iteration:    35charge 0 multiplicity 1
 C        -0.069134         0.154445         0.406373
 C         1.407552         0.118236         0.051739
 C         2.031465         0.752113        -1.249297
 C         3.345993        -0.131562        -1.145588
 C         2.816051        -1.510317        -1.417195
 C         2.153244        -1.376405        -0.033260
 O         1.670122        -2.555054         0.422718
 C         3.187460        -0.479412         0.537347
 O         2.355098         0.530304         1.012074
 H        -0.233016        -0.367385         1.388520
 H        -0.572781         1.146475         0.480271
 H        -0.538283        -0.362179        -0.412123
 H         1.452250         0.551537        -2.217418
 H         2.195987         1.829317        -1.039739
 H         4.340711         0.244944        -1.623190
 H         2.079963        -1.671947        -2.250136
 H         3.619888        -2.215020        -1.403674
 H         0.678116        -2.457213         0.573458
 H         4.045920        -0.790699         1.084609
