19
Iteration:  2425charge 0 multiplicity 1
 C        -0.037328         0.205280         0.464453
 C         1.402354         0.062699        -0.018426
 C         2.093031         0.756670        -1.251449
 C         3.344345        -0.118045        -1.171661
 C         2.820692        -1.493804        -1.503850
 C         2.054879        -1.348001        -0.077178
 O         1.626340        -2.491947         0.564597
 C         3.243139        -0.477462         0.373135
 O         2.316410         0.374355         1.079290
 H        -0.097415        -0.301070         1.497097
 H        -0.288542         1.359904         0.571466
 H        -0.840505        -0.094334        -0.224692
 H         1.543934         0.457824        -2.170830
 H         2.416792         1.853371        -1.269718
 H         4.411388         0.309387        -1.401270
 H         2.130331        -1.437135        -2.416228
 H         3.296011        -2.463328        -1.591821
 H         1.173320        -2.073118         1.353327
 H         4.054801        -0.947766         0.907184
