19
Iteration:  1852
 C        -0.011023         0.254234         0.644806
 C         1.379957         0.100242         0.138861
 C         2.072797         0.807257        -1.207324
 C         3.289979        -0.215610        -1.196829
 C         2.707794        -1.484234        -1.535334
 C         2.071814        -1.395187        -0.193469
 O         1.596658        -2.555339         0.506313
 C         3.298121        -0.557126         0.305064
 O         2.470215         0.532493         1.052431
 H         0.084920        -0.227018         1.569823
 H        -0.310148         1.241579         0.777641
 H        -0.678839        -0.066195        -0.159124
 H         1.412584         0.528445        -2.047762
 H         2.264721         1.819789        -1.131268
 H         4.179343         0.087660        -1.672635
 H         1.990371        -1.503041        -2.399323
 H         3.370687        -2.412740        -1.433524
 H         0.668442        -2.458283         0.584193
 H         4.178481        -0.923788         0.840811
