19
Iteration:  2646
 C        -0.029348         0.245869         0.315608
 C         1.399825         0.001008         0.033595
 C         2.052118         0.715538        -1.237756
 C         3.357252        -0.004128        -1.156604
 C         2.851615        -1.464803        -1.514802
 C         2.095451        -1.428689        -0.103351
 O         1.509130        -2.397026         0.684709
 C         3.267759        -0.529500         0.425005
 O         2.329585         0.374454         1.069261
 H        -0.293272        -0.194332         1.245323
 H        -0.299113         1.327191         0.353486
 H        -0.669631        -0.379050        -0.384499
 H         1.427583         0.558340        -2.123035
 H         2.071695         1.794012        -1.124113
 H         4.216805         0.224112        -1.708813
 H         2.143031        -1.390348        -2.387747
 H         3.577164        -2.220727        -1.754242
 H         2.289330        -2.994168         0.930517
 H         4.111383        -0.949431         1.095730
