19
Iteration:  2950charge 0 multiplicity 1
 C        -0.019581         0.314040         0.349901
 C         1.351641         0.038337         0.039218
 C         2.028180         0.687969        -1.164095
 C         3.346351        -0.080743        -1.156782
 C         2.876175        -1.474527        -1.501547
 C         2.109540        -1.389541        -0.106449
 O         1.488933        -2.485733         0.628013
 C         3.309125        -0.422587         0.332458
 O         2.361424         0.300710         1.109735
 H        -0.568732        -0.382285         1.006832
 H        -0.174323         1.430379         0.601135
 H        -0.569684         0.074109        -0.656007
 H         1.362459         0.476016        -2.065292
 H         2.008701         1.789984        -1.300877
 H         4.189129         0.346304        -1.767626
 H         2.099227        -1.307229        -2.363565
 H         3.727812        -2.117993        -1.719341
 H         1.988196        -2.798189         1.351334
 H         4.246860        -0.797148         0.944026
