19
Iteration:  1783
 C        -0.003663         0.286837         0.426347
 C         1.445685         0.048670         0.101417
 C         2.007486         0.804020        -1.168365
 C         3.232754        -0.119476        -1.228625
 C         2.616787        -1.493073        -1.534399
 C         2.079661        -1.406479        -0.106553
 O         1.584068        -2.437188         0.634452
 C         3.273102        -0.592302         0.278629
 O         2.545441         0.388505         1.147489
 H        -0.368657        -0.328077         1.227724
 H        -0.077714         1.291660         0.910021
 H        -0.542006         0.449396        -0.432492
 H         1.295792         0.756452        -1.950630
 H         2.167257         1.907485        -0.962940
 H         4.090772         0.250318        -1.889128
 H         2.043550        -1.455884        -2.505562
 H         3.542244        -2.200745        -1.606813
 H         1.680319        -3.325476         0.288788
 H         4.213084        -1.070505         0.539158
