19
Iteration:  1294
 C         0.014807         0.390591         0.519694
 C         1.378414         0.092558         0.007323
 C         2.023743         0.791702        -1.204075
 C         3.351530        -0.144006        -1.214743
 C         2.698911        -1.530654        -1.551858
 C         2.119194        -1.421145        -0.115942
 O         1.611652        -2.481109         0.636046
 C         3.284113        -0.493712         0.371810
 O         2.354072         0.319452         1.077094
 H         0.060302         0.016495         1.541743
 H        -0.150134         1.401857         0.825839
 H        -0.745484        -0.058573        -0.026765
 H         1.506870         0.673089        -2.123996
 H         2.092747         1.857282        -1.103530
 H         4.257812         0.188183        -1.780718
 H         2.021460        -1.534482        -2.473252
 H         3.325820        -2.428806        -1.645243
 H         1.532722        -3.161217        -0.051549
 H         4.133912        -0.758376         1.026267
