19
Iteration:  3904
 C        -0.102071         0.185796         0.360296
 C         1.381379         0.061415         0.025101
 C         2.199598         0.790538        -1.183575
 C         3.402978        -0.112810        -1.141740
 C         2.831469        -1.559613        -1.433063
 C         2.091165        -1.397554        -0.129490
 O         1.559033        -2.476032         0.503462
 C         3.231528        -0.468389         0.398729
 O         2.268402         0.460396         1.062614
 H        -0.575969        -0.622028         0.911845
 H        -0.306982         1.168397         0.872038
 H        -0.621993         0.147006        -0.640226
 H         1.604298         0.569160        -2.073853
 H         2.414947         1.779893        -0.809781
 H         4.311916         0.293698        -1.576208
 H         2.164040        -1.551884        -2.324561
 H         3.402220        -2.530998        -1.400732
 H         1.847959        -2.462636         1.426765
 H         4.020569        -0.697215         1.136399
