19
Iteration:  1124
 C        -0.000977         0.290657         0.476426
 C         1.422460         0.058160         0.074583
 C         2.001458         0.714373        -1.172272
 C         3.242733        -0.063624        -1.159181
 C         2.778096        -1.539819        -1.537203
 C         2.094320        -1.409478        -0.122416
 O         1.585685        -2.476523         0.616747
 C         3.282717        -0.527642         0.348146
 O         2.443131         0.439626         1.071292
 H        -0.344903        -0.278280         1.270667
 H        -0.250108         1.289655         0.500986
 H        -0.417392        -0.157312        -0.455525
 H         1.299967         0.550973        -2.078699
 H         2.139264         1.795777        -1.139658
 H         4.196335         0.317254        -1.629236
 H         2.099441        -1.545012        -2.323429
 H         3.720274        -2.113911        -1.436059
 H         0.973744        -2.927781        -0.054728
 H         4.212589        -0.777439         0.790466
