19
Iteration:   524
 C        -0.140567         0.180660         0.453749
 C         1.370293         0.107484        -0.002548
 C         2.060972         0.864806        -1.163823
 C         3.385316        -0.076675        -1.202656
 C         2.807535        -1.604554        -1.426632
 C         2.059362        -1.389641        -0.146719
 O         1.587246        -2.553096         0.513089
 C         3.239114        -0.504302         0.328479
 O         2.377426         0.487495         1.059623
 H        -0.351804        -0.516959         1.293980
 H        -0.307786         1.212256         0.845066
 H        -0.861170        -0.180864        -0.203067
 H         1.505588         0.764485        -2.134406
 H         2.594618         1.823563        -0.872264
 H         4.306203         0.320511        -1.568518
 H         2.188073        -1.931247        -2.272710
 H         3.728040        -2.179624        -1.279019
 H         2.066794        -2.619904         1.378979
 H         4.240975        -0.739879         0.900435
