19
Iteration:  3553charge 0 multiplicity 1
 C        -0.009858         0.331363         0.318592
 C         1.387748         0.071761         0.065244
 C         1.982245         0.723403        -1.232240
 C         3.395617        -0.040938        -1.147725
 C         2.808324        -1.506622        -1.456440
 C         2.100871        -1.425086        -0.074832
 O         1.564239        -2.512269         0.560228
 C         3.232124        -0.490192         0.476601
 O         2.321258         0.391797         1.098631
 H        -0.543354        -0.441504         0.962084
 H        -0.097699         1.279652         0.748581
 H        -0.432548         0.343487        -0.637790
 H         1.557823         0.317502        -2.166605
 H         2.264768         1.713968        -1.045534
 H         4.346566         0.215256        -1.685969
 H         2.243990        -1.654436        -2.424019
 H         3.582031        -2.172464        -1.418484
 H         1.881147        -3.277335         0.147308
 H         4.192688        -0.524515         0.938452
