19
Iteration:  4938
 C        -0.017985         0.348499         0.470265
 C         1.396422         0.033777         0.049305
 C         2.150366         0.750265        -1.129015
 C         3.357717        -0.163634        -1.156934
 C         2.725954        -1.489452        -1.521213
 C         2.067020        -1.361992        -0.150640
 O         1.448264        -2.460804         0.418723
 C         3.233819        -0.532114         0.392980
 O         2.427888         0.385103         1.172296
 H        -0.180886        -0.025487         1.484051
 H        -0.026824         1.466003         0.470102
 H        -0.669976        -0.036445        -0.310680
 H         1.475491         0.806123        -1.916278
 H         2.306571         1.822927        -0.987067
 H         4.211617         0.170471        -1.656173
 H         1.936212        -1.749931        -2.327523
 H         3.511205        -2.326554        -1.631730
 H         2.228818        -3.105082         0.488401
 H         4.157991        -0.999559         0.815653
