19
Iteration:   277charge 0 multiplicity 1
 C        -0.077160         0.218015         0.336379
 C         1.360262        -0.054834         0.051604
 C         2.050790         0.822879        -1.173617
 C         3.262884        -0.075153        -1.235506
 C         2.870292        -1.493344        -1.457266
 C         2.140841        -1.419860        -0.167788
 O         1.631474        -2.443690         0.655404
 C         3.294859        -0.383184         0.341831
 O         2.328403         0.260169         1.137704
 H        -0.362779        -0.095684         1.352948
 H         0.023087         1.331398         0.347686
 H        -0.725512        -0.073892        -0.494067
 H         1.384985         0.823682        -1.999163
 H         2.092489         1.827562        -0.823782
 H         4.392414         0.261664        -1.604484
 H         2.193206        -1.697701        -2.392141
 H         3.735218        -2.148910        -1.541935
 H         0.705324        -2.312171         0.689383
 H         4.308405        -0.529617         0.774061
