19
Iteration:  4054
 C        -0.080355         0.236992         0.254809
 C         1.448559         0.048375         0.038850
 C         2.044089         0.775423        -1.157734
 C         3.390900        -0.060073        -1.134216
 C         2.873363        -1.562735        -1.517634
 C         2.129753        -1.419519        -0.129020
 O         1.417067        -2.447675         0.580181
 C         3.257119        -0.456250         0.388767
 O         2.325373         0.408954         1.177736
 H        -0.306129         0.048510         1.298126
 H        -0.548130         1.081356        -0.106419
 H        -0.484491        -0.475483        -0.359617
 H         1.639632         0.643221        -2.190365
 H         2.150693         1.800887        -0.916442
 H         4.410022         0.454578        -1.224135
 H         2.431161        -1.731204        -2.515538
 H         3.572799        -2.311609        -1.488540
 H         2.175350        -2.906277         1.079957
 H         4.242962        -0.892813         0.715902
