19
Iteration:  4399charge 0 multiplicity 1
 C        -0.007400         0.095819         0.221859
 C         1.471365         0.106496         0.016371
 C         2.129687         0.796769        -1.174195
 C         3.341813        -0.087555        -1.197459
 C         2.784076        -1.461855        -1.555368
 C         2.115868        -1.426062        -0.083183
 O         1.449766        -2.462100         0.647808
 C         3.283002        -0.507626         0.450637
 O         2.351722         0.408023         1.147227
 H        -0.378179        -0.911740         0.636922
 H        -0.292544         0.746395         1.078688
 H        -0.443289         0.286041        -0.738345
 H         1.536698         0.714587        -2.092555
 H         2.503922         1.845656        -1.005770
 H         4.213617         0.352118        -1.758727
 H         2.110564        -1.541510        -2.398149
 H         3.484295        -2.422792        -1.578459
 H         0.879065        -1.936620         1.278686
 H         4.077243        -0.626377         1.057907
