19
Iteration:  1961charge 0 multiplicity 1
 C         0.027214         0.269597         0.453007
 C         1.426958         0.073043         0.044841
 C         2.043551         0.782461        -1.203975
 C         3.273167        -0.100768        -1.285644
 C         2.626839        -1.476513        -1.510291
 C         2.195552        -1.447285        -0.063868
 O         1.510824        -2.504663         0.627985
 C         3.321820        -0.499632         0.408195
 O         2.434633         0.424534         1.063605
 H        -0.191377        -0.488665         1.176247
 H        -0.027719         1.312308         0.878285
 H        -0.801958         0.252832        -0.342039
 H         1.237478         0.568771        -2.002208
 H         2.185636         1.758377        -0.761521
 H         4.248176         0.210024        -1.720754
 H         1.884748        -1.535846        -2.405779
 H         3.454841        -2.309368        -1.538795
 H         1.521727        -3.196661        -0.077748
 H         4.317251        -0.664346         0.967039
