19
Iteration:  3278
 C        -0.038760         0.273731         0.342899
 C         1.389376         0.061167        -0.040340
 C         2.049627         0.829334        -1.207791
 C         3.309320        -0.034856        -1.122178
 C         2.826431        -1.518224        -1.494675
 C         2.140821        -1.431620        -0.134192
 O         1.550719        -2.501797         0.600702
 C         3.198074        -0.521923         0.467706
 O         2.353942         0.372866         1.097281
 H        -0.247568        -0.320969         1.269232
 H        -0.349036         1.333355         0.455216
 H        -0.635700        -0.071375        -0.565970
 H         1.634466         0.829003        -2.212883
 H         2.229916         1.850737        -1.177616
 H         4.282816         0.013972        -1.559641
 H         2.045351        -1.638309        -2.320682
 H         3.705137        -2.051759        -1.523406
 H         2.207275        -3.009822         1.009206
 H         4.082880        -0.928490         1.065210
