19
Iteration:  3072charge 0 multiplicity 1
 C        -0.137958         0.385389         0.385568
 C         1.379815         0.131926         0.033078
 C         2.034415         0.759081        -1.181989
 C         3.330465        -0.124777        -1.183414
 C         2.916972        -1.519343        -1.528422
 C         2.158446        -1.467195        -0.090359
 O         1.631935        -2.585468         0.571715
 C         3.266407        -0.491620         0.414572
 O         2.346159         0.408424         1.124478
 H        -0.582958        -0.167677         1.219701
 H        -0.396004         1.380803         0.314621
 H        -0.784460        -0.160581        -0.372856
 H         1.328433         0.662941        -2.069587
 H         2.242735         1.810100        -1.052645
 H         4.176646         0.410382        -1.561136
 H         2.336628        -1.907632        -2.361526
 H         3.676626        -2.257499        -1.512682
 H         0.630785        -2.444903         0.457726
 H         4.283581        -0.744776         0.957368
