19
Iteration:  1864
 C        -0.036192         0.258208         0.603194
 C         1.436686         0.080570         0.097217
 C         2.051717         0.721508        -1.214039
 C         3.314523        -0.106164        -1.224395
 C         2.655784        -1.551674        -1.591996
 C         2.081559        -1.357015        -0.048347
 O         1.563622        -2.527577         0.461252
 C         3.270606        -0.484814         0.347161
 O         2.540984         0.454723         1.076724
 H        -0.277324        -0.243184         1.521108
 H        -0.254120         1.270581         0.753748
 H        -0.797519        -0.312531        -0.002026
 H         1.469385         0.701118        -2.175308
 H         2.307050         1.739861        -1.008181
 H         4.217243         0.340160        -1.614002
 H         1.936440        -1.792555        -2.414145
 H         3.455490        -2.339678        -1.578058
 H         0.649106        -2.326146         0.828044
 H         4.270037        -0.765668         0.792178
