19
Iteration:  2293
 C         0.037149         0.234513         0.441246
 C         1.409058         0.104301         0.063727
 C         2.026378         0.750019        -1.215413
 C         3.287090        -0.072057        -1.190568
 C         2.736713        -1.529480        -1.467369
 C         2.080282        -1.385334        -0.178822
 O         1.595584        -2.529374         0.527613
 C         3.220671        -0.487627         0.366532
 O         2.461814         0.402556         1.136288
 H        -0.388667        -0.085575         1.456193
 H        -0.161874         1.360410         0.392905
 H        -0.518997        -0.231189        -0.385498
 H         1.364176         0.346495        -2.020526
 H         2.185071         1.837375        -1.084855
 H         4.232506         0.350979        -1.670329
 H         2.166179        -1.809013        -2.397200
 H         3.490862        -2.306851        -1.291456
 H         0.903741        -2.294600         1.142204
 H         4.182142        -0.679566         0.744053
