19
Iteration:   742charge 0 multiplicity 1
 C        -0.089915         0.128314         0.298896
 C         1.385529         0.097145         0.006562
 C         2.022902         0.721279        -1.122111
 C         3.302407        -0.076720        -1.151569
 C         2.729862        -1.507460        -1.448275
 C         2.135301        -1.346562        -0.088658
 O         1.539012        -2.430446         0.561216
 C         3.311176        -0.479856         0.373858
 O         2.428569         0.411795         1.104713
 H        -0.269661        -0.439946         1.218510
 H        -0.385416         1.207469         0.491386
 H        -0.744982        -0.044853        -0.545751
 H         1.495687         0.833886        -2.083491
 H         2.208176         1.760502        -0.935024
 H         4.223412         0.194552        -1.682260
 H         2.150565        -1.666558        -2.366729
 H         3.592883        -2.244786        -1.457621
 H         2.271547        -3.039658         0.915334
 H         4.339576        -0.857354         0.710642
