19
Iteration:    48
 C        -0.032800         0.159266         0.378480
 C         1.385613         0.012285        -0.054787
 C         2.025347         0.798469        -1.125877
 C         3.269595        -0.053421        -1.135310
 C         2.892122        -1.547871        -1.402496
 C         2.166135        -1.432252        -0.119074
 O         1.560968        -2.579118         0.524906
 C         3.305067        -0.432732         0.451771
 O         2.327191         0.509223         1.022484
 H        -0.249202        -0.170084         1.438297
 H        -0.091893         1.303991         0.361136
 H        -0.807379        -0.332693        -0.225852
 H         1.489397         0.830080        -2.205213
 H         2.230036         1.884315        -0.870291
 H         4.176170         0.455488        -1.731986
 H         2.325117        -1.838746        -2.352818
 H         3.690864        -2.269362        -1.319813
 H         0.624919        -2.457892         0.503437
 H         4.206600        -0.502369         1.072091
