19
Iteration:    68charge 0 multiplicity 1
 C        -0.020112         0.230762         0.384328
 C         1.354444        -0.055425         0.031302
 C         2.001395         0.704932        -1.227259
 C         3.381130        -0.021175        -1.195700
 C         2.995399        -1.454740        -1.479065
 C         2.162557        -1.427610        -0.157854
 O         1.519033        -2.457997         0.666645
 C         3.247903        -0.391557         0.330932
 O         2.289451         0.286738         1.133114
 H        -0.363838        -0.089825         1.406566
 H        -0.272113         1.321912         0.307784
 H        -0.675019        -0.170953        -0.324894
 H         1.362637         0.688280        -2.194109
 H         2.017716         1.769732        -0.890984
 H         4.388941         0.538663        -1.555738
 H         2.485595        -1.655510        -2.474187
 H         3.887844        -2.030171        -1.408032
 H         0.520137        -2.267855         0.615283
 H         4.177147        -0.563054         0.827938
