19
Iteration:    77
 C        -0.084864         0.231307         0.381696
 C         1.408680         0.009732         0.016780
 C         1.975614         0.696563        -1.229817
 C         3.329442         0.004255        -1.175795
 C         3.007697        -1.447590        -1.521041
 C         2.167505        -1.399329        -0.175985
 O         1.575857        -2.394867         0.666510
 C         3.257703        -0.505782         0.405427
 O         2.277837         0.261433         1.134785
 H        -0.414557        -0.126304         1.365358
 H        -0.129231         1.300887         0.334325
 H        -0.676726        -0.234754        -0.368521
 H         1.453868         0.410493        -2.099122
 H         2.104880         1.758847        -1.193280
 H         4.202742         0.500970        -1.631953
 H         2.476324        -1.605959        -2.468192
 H         3.787710        -2.201186        -1.426699
 H         0.579223        -2.197607         0.643033
 H         4.153324        -0.711858         0.956549
