19
Iteration:  3621charge 0 multiplicity 1
 C        -0.026732         0.145557         0.341663
 C         1.412188         0.043960        -0.034750
 C         2.120828         0.762168        -1.222483
 C         3.398702        -0.087285        -1.086820
 C         2.803584        -1.515775        -1.483735
 C         2.103122        -1.398492        -0.184754
 O         1.580865        -2.367408         0.602889
 C         3.199234        -0.508186         0.459010
 O         2.346624         0.397906         1.113590
 H        -0.334826        -0.191171         1.343961
 H        -0.314174         1.249782         0.276285
 H        -0.726720        -0.422112        -0.333096
 H         1.576103         0.479557        -2.178341
 H         1.868316         1.726121        -0.710154
 H         4.254656         0.413413        -1.503637
 H         2.257524        -1.678394        -2.399728
 H         3.567452        -2.284439        -1.318206
 H         0.693443        -2.513709         0.219118
 H         4.130365        -0.733526         1.026481
