19
Iteration:  4843charge 0 multiplicity 1
 C        -0.037272         0.429379         0.401141
 C         1.442668         0.066710         0.003352
 C         2.042238         0.834868        -1.109693
 C         3.307625        -0.175927        -1.153555
 C         2.777015        -1.501629        -1.519296
 C         1.989037        -1.392823        -0.152411
 O         1.596078        -2.572665         0.581569
 C         3.270968        -0.558559         0.414373
 O         2.418032         0.364746         1.093125
 H        -0.539073        -0.440072         0.863719
 H        -0.005427         1.266092         1.125589
 H        -0.425100         0.734857        -0.496292
 H         1.653317         0.923061        -2.153187
 H         2.331325         1.875371        -0.958563
 H         4.299180         0.201513        -1.532526
 H         2.183652        -1.479143        -2.343282
 H         3.466643        -2.240288        -1.653572
 H         1.174879        -3.226155         0.000858
 H         4.063199        -0.884271         1.091919
