19
Iteration:  2113
 C         0.031594         0.223447         0.472423
 C         1.375594         0.092508        -0.010054
 C         2.107767         0.795347        -1.173081
 C         3.346683        -0.107633        -1.149874
 C         2.648591        -1.543121        -1.578834
 C         2.194786        -1.448230        -0.148397
 O         1.473936        -2.479940         0.617968
 C         3.264626        -0.496181         0.370380
 O         2.368880         0.414401         1.051276
 H         0.024638        -0.184045         1.440645
 H        -0.255739         1.303131         0.708579
 H        -0.682002        -0.150702        -0.324655
 H         1.446837         0.874597        -2.039040
 H         2.371229         1.863780        -0.923033
 H         4.174387         0.364231        -1.777472
 H         2.026296        -1.631229        -2.388774
 H         3.397243        -2.293099        -1.843761
 H         2.091689        -2.610442         1.413496
 H         4.213584        -0.850313         0.972841
