19
Iteration:   838
 C        -0.076641         0.205080         0.352113
 C         1.412513         0.028545         0.061629
 C         1.954170         0.766117        -1.285898
 C         3.354697        -0.034508        -1.104822
 C         2.826491        -1.546158        -1.473095
 C         2.052211        -1.390311        -0.043268
 O         1.532865        -2.443553         0.574810
 C         3.268910        -0.460392         0.353304
 O         2.499947         0.439351         1.150085
 H        -0.431595        -0.600167         1.096182
 H        -0.359393         1.241795         0.642922
 H        -0.833968        -0.094769        -0.626909
 H         1.493252         0.478612        -2.248146
 H         1.991952         1.878728        -1.341587
 H         4.214993         0.427401        -1.532686
 H         2.118323        -1.837710        -2.232009
 H         3.599791        -2.389916        -1.284710
 H         1.842812        -3.240269         0.022454
 H         4.268709        -0.773892         0.937633
