19
Iteration:  1795
 C         0.001813         0.377655         0.495934
 C         1.438437         0.049610         0.117359
 C         1.970910         0.736603        -1.084924
 C         3.225303        -0.076223        -1.300618
 C         2.709196        -1.505925        -1.628998
 C         2.095970        -1.383789        -0.196568
 O         1.565765        -2.416678         0.699417
 C         3.324146        -0.542195         0.314988
 O         2.498540         0.313125         1.094350
 H        -0.422757        -0.421567         1.044280
 H        -0.139906         1.385398         0.886453
 H        -0.544158         0.169147        -0.355742
 H         1.406295         0.607337        -1.952532
 H         2.262076         1.781816        -0.889394
 H         4.213929         0.333743        -1.574383
 H         1.969605        -1.702163        -2.455315
 H         3.276544        -2.514955        -1.510887
 H         1.470534        -3.193758         0.057195
 H         4.229505        -0.819169         0.791733
