19
Iteration:  4084
 C        -0.004188         0.105374         0.278879
 C         1.438412         0.023699        -0.093874
 C         2.150945         0.768526        -1.138643
 C         3.382515        -0.121670        -1.144174
 C         2.730166        -1.504299        -1.478854
 C         2.133314        -1.368510        -0.069344
 O         1.481541        -2.363644         0.598680
 C         3.212358        -0.476894         0.546318
 O         2.306770         0.446796         1.062873
 H        -0.108339        -0.499228         1.227054
 H        -0.509468         1.073626         0.360866
 H        -0.601049        -0.378138        -0.504802
 H         1.798005         0.845154        -2.203765
 H         2.277878         1.893751        -0.933437
 H         4.377985         0.367869        -1.438201
 H         2.016911        -1.524653        -2.382628
 H         3.501337        -2.322133        -1.526650
 H         1.958361        -3.108188         0.335337
 H         4.081321        -0.951012         1.024056
