19
Iteration:  4244charge 0 multiplicity 1
 C         0.032800         0.076989         0.233865
 C         1.466420         0.026077         0.006615
 C         2.064039         0.783543        -1.089840
 C         3.400279        -0.108835        -1.161014
 C         2.827015        -1.521351        -1.477095
 C         2.119381        -1.328465        -0.118047
 O         1.352436        -2.306587         0.583486
 C         3.286990        -0.448332         0.416659
 O         2.306022         0.360430         1.146883
 H        -0.110049        -0.234082         1.253000
 H        -0.380608         1.039862        -0.179172
 H        -0.539750        -0.726761        -0.356941
 H         1.687825         0.671144        -2.114518
 H         2.123226         1.874705        -0.854884
 H         4.327124         0.138491        -1.609883
 H         2.130606        -1.447676        -2.326305
 H         3.674327        -2.288291        -1.652983
 H         1.906997        -3.035044         0.900667
 H         4.206515        -0.766396         0.869033
