19
Iteration:  1678charge 0 multiplicity 1
 C         0.004053         0.323397         0.544182
 C         1.441768         0.055752         0.116477
 C         2.002710         0.773319        -1.114471
 C         3.273292        -0.163055        -1.262054
 C         2.615185        -1.489005        -1.526848
 C         2.147781        -1.382768        -0.134561
 O         1.560453        -2.523721         0.479633
 C         3.381884        -0.523624         0.314090
 O         2.465990         0.388730         1.067011
 H        -0.113623        -0.072864         1.550903
 H        -0.063906         1.412717         0.601520
 H        -0.875276        -0.133242        -0.021083
 H         1.432706         0.654434        -2.089441
 H         2.238750         1.786989        -0.792825
 H         4.182368         0.147790        -1.781197
 H         1.784718        -1.515472        -2.184263
 H         3.309115        -2.224512        -1.805958
 H         0.914741        -2.254170         1.167504
 H         4.310751        -0.941349         0.701666
