19
Iteration:  2689charge 0 multiplicity 1
 C        -0.017876         0.043165         0.379651
 C         1.459125         0.143551         0.019629
 C         2.035524         0.796982        -1.214115
 C         3.304725        -0.078750        -1.261211
 C         2.814738        -1.558520        -1.385283
 C         2.198071        -1.388738        -0.047669
 O         1.384233        -2.416902         0.550004
 C         3.296660        -0.460610         0.476083
 O         2.395058         0.478750         1.055852
 H        -0.316720        -0.523184         1.233747
 H        -0.534868         1.040005         0.474806
 H        -0.473477        -0.499757        -0.519810
 H         1.558441         0.847267        -2.206954
 H         2.310021         1.847778        -1.098656
 H         4.086136         0.422866        -1.761445
 H         2.092076        -1.824553        -2.243317
 H         3.620491        -2.266070        -1.263309
 H         1.815664        -3.316652         0.367308
 H         4.212999        -0.836784         1.063864
