19
Iteration:  1023charge 0 multiplicity 1
 C        -0.087972         0.275759         0.364966
 C         1.403587         0.019455         0.050508
 C         2.049082         0.767223        -1.175380
 C         3.245716        -0.086345        -1.283958
 C         2.796704        -1.510476        -1.557331
 C         2.185422        -1.400799        -0.083558
 O         1.549655        -2.461793         0.661399
 C         3.290200        -0.499616         0.453124
 O         2.411901         0.418734         1.108072
 H        -0.325820        -0.450193         1.176416
 H        -0.259870         1.333265         0.587436
 H        -0.738298         0.100579        -0.447027
 H         1.420660         0.653385        -2.148922
 H         2.109726         1.851826        -0.820954
 H         4.126303         0.246866        -1.842808
 H         2.075469        -1.688335        -2.472135
 H         3.623085        -2.342011        -1.650086
 H         1.775644        -3.310633         0.172455
 H         4.151968        -0.650344         1.262637
