19
Iteration:  2671
 C        -0.053147         0.131058         0.280990
 C         1.396687        -0.012016         0.034118
 C         2.006096         0.741341        -1.143785
 C         3.298648        -0.092292        -1.145270
 C         2.832458        -1.547216        -1.483998
 C         2.161881        -1.404901        -0.082986
 O         1.411246        -2.299655         0.580184
 C         3.326978        -0.405255         0.380954
 O         2.440012         0.428162         1.119408
 H        -0.311640        -0.423979         1.230279
 H        -0.345902         1.143037         0.303061
 H        -0.667670        -0.521371        -0.405895
 H         1.365906         0.564236        -2.045665
 H         2.011269         1.819326        -0.965301
 H         4.377430         0.069616        -1.518363
 H         2.277892        -1.769515        -2.366260
 H         3.699375        -2.330241        -1.528903
 H         1.926111        -3.154388         0.539642
 H         4.341843        -0.534819         0.829809
