19
Iteration:  1204
 C        -0.066431         0.217365         0.488429
 C         1.411154         0.021119         0.062611
 C         2.081238         0.778291        -1.251908
 C         3.265830        -0.077387        -1.175191
 C         2.681147        -1.435629        -1.535034
 C         2.109088        -1.377862        -0.124338
 O         1.572659        -2.464463         0.614322
 C         3.296462        -0.544086         0.330831
 O         2.476603         0.346652         1.050090
 H        -0.341547        -0.479534         1.328507
 H        -0.245128         1.191835         0.970914
 H        -0.686523         0.016741        -0.319324
 H         1.611838         0.605385        -2.212864
 H         2.417329         1.843475        -1.142849
 H         4.129966         0.202980        -1.699685
 H         2.258110        -1.598136        -2.535712
 H         3.419014        -2.308250        -1.632748
 H         1.095583        -2.024147         1.384349
 H         4.150330        -0.717310         1.021982
