19
Iteration:  1030charge 0 multiplicity 1
 C        -0.099643         0.267517         0.371451
 C         1.425639         0.016957         0.092435
 C         1.996156         0.830895        -1.189234
 C         3.321113        -0.102357        -1.309186
 C         2.800769        -1.566956        -1.574127
 C         2.145093        -1.438144        -0.038557
 O         1.538145        -2.448174         0.631829
 C         3.301034        -0.470696         0.478554
 O         2.410730         0.406822         1.107336
 H        -0.593793        -0.443484         1.153436
 H        -0.330110         1.367267         0.680571
 H        -0.636458         0.021158        -0.586480
 H         1.298909         0.737402        -1.995920
 H         2.156091         1.922367        -1.104597
 H         4.183493         0.256615        -1.834481
 H         2.157765        -1.512064        -2.455917
 H         3.558137        -2.264742        -1.512812
 H         2.031176        -3.199291         0.332211
 H         4.246507        -0.834439         0.871765
