19
Iteration:  2650
 C        -0.029691         0.213302         0.319456
 C         1.396720        -0.010863         0.051387
 C         2.050433         0.682178        -1.247656
 C         3.383734         0.008522        -1.149917
 C         2.834632        -1.440842        -1.509851
 C         2.100771        -1.394521        -0.111990
 O         1.483278        -2.394096         0.689941
 C         3.289389        -0.527292         0.409970
 O         2.337870         0.384840         1.078773
 H        -0.395928        -0.229375         1.287291
 H        -0.141479         1.272063         0.218716
 H        -0.655672        -0.356674        -0.406945
 H         1.408543         0.511014        -2.136033
 H         2.155379         1.752961        -1.004205
 H         4.154440         0.475034        -1.913030
 H         2.240907        -1.482415        -2.399583
 H         3.538256        -2.326227        -1.736235
 H         2.136970        -3.031915         0.927743
 H         4.039227        -0.962939         1.074363
