19
Iteration:  3188charge 0 multiplicity 1
 C        -0.075129         0.105189         0.448622
 C         1.387580         0.034457        -0.078578
 C         2.083706         0.729258        -1.218924
 C         3.374437        -0.109177        -1.064045
 C         2.850426        -1.538564        -1.444041
 C         2.200802        -1.389790        -0.147987
 O         1.485976        -2.305131         0.546852
 C         3.237133        -0.503329         0.464249
 O         2.352344         0.471199         1.045355
 H        -0.167250        -0.641845         1.209213
 H        -0.327702         1.225141         0.761552
 H        -0.823887        -0.292727        -0.333278
 H         1.383527         0.776142        -2.073786
 H         2.095158         1.865738        -1.113490
 H         4.315753         0.148434        -1.437392
 H         2.058606        -1.554686        -2.315980
 H         3.591678        -2.336269        -1.629650
 H         1.698794        -3.144006         0.086726
 H         3.990578        -0.795075         1.201799
