19
Iteration:  3847
 C        -0.103293         0.294050         0.284529
 C         1.410019        -0.014607         0.003057
 C         2.050870         0.675954        -1.155883
 C         3.345761        -0.102672        -1.138120
 C         2.950839        -1.495481        -1.523700
 C         2.089706        -1.401465        -0.105301
 O         1.474327        -2.427437         0.525900
 C         3.284477        -0.468312         0.422343
 O         2.337462         0.399418         1.170197
 H        -0.375323        -0.043405         1.379496
 H        -0.310552         1.361722         0.137801
 H        -0.725120        -0.195200        -0.480193
 H         1.461802         0.575669        -2.047057
 H         1.988311         1.689115        -1.067279
 H         4.287777         0.455565        -1.605493
 H         2.491302        -1.553641        -2.569306
 H         3.617575        -2.295030        -1.346168
 H         2.104702        -2.864116         1.160605
 H         4.060252        -0.698716         1.198193
