19
Iteration:   311
 C        -0.052005         0.177595         0.425984
 C         1.401574         0.053097        -0.007302
 C         2.050778         0.783559        -1.231548
 C         3.324737        -0.107692        -1.114481
 C         2.849671        -1.443320        -1.517256
 C         2.084717        -1.383650        -0.163956
 O         1.682672        -2.490770         0.632336
 C         3.149002        -0.507045         0.402434
 O         2.356091         0.435335         1.068251
 H        -0.249503        -0.424088         1.303916
 H        -0.182421         1.205871         0.754525
 H        -0.858351        -0.134393        -0.304993
 H         1.516207         0.588965        -2.163776
 H         2.249787         1.829415        -1.091558
 H         4.365990         0.236198        -1.569202
 H         2.252801        -1.586188        -2.451178
 H         3.708193        -2.161739        -1.433373
 H         0.789277        -2.866932         0.634710
 H         4.026303        -0.833767         0.927419
