19
Iteration:  2800
 C        -0.048879         0.241720         0.347026
 C         1.408519         0.049331        -0.026126
 C         2.109165         0.739752        -1.240883
 C         3.375900        -0.090952        -1.129243
 C         2.719975        -1.485880        -1.547398
 C         2.058211        -1.412963        -0.077696
 O         1.614349        -2.566340         0.569126
 C         3.196767        -0.455803         0.442853
 O         2.346949         0.472954         1.106968
 H        -0.211394        -0.391006         1.263671
 H        -0.301312         1.200531         0.706599
 H        -0.751629         0.158816        -0.577984
 H         1.488533         0.624571        -2.219152
 H         2.196130         1.739162        -0.818352
 H         4.482371         0.212788        -1.273728
 H         1.991138        -1.435878        -2.375346
 H         3.439252        -2.339174        -1.668352
 H         2.115751        -2.761364         1.338604
 H         4.265810        -0.703539         0.921340
