19
Iteration:   366
 C        -0.042874         0.205550         0.390195
 C         1.456991        -0.014059         0.064027
 C         1.974845         0.787674        -1.164575
 C         3.265801        -0.048417        -1.254165
 C         2.889796        -1.568880        -1.451763
 C         2.152140        -1.358328        -0.098322
 O         1.474377        -2.476267         0.590300
 C         3.301570        -0.391760         0.366022
 O         2.363112         0.396414         1.101098
 H        -0.349139        -0.462670         1.168922
 H        -0.341610         1.218225         0.636557
 H        -0.670152         0.039876        -0.567534
 H         1.490453         0.900517        -2.130620
 H         2.180408         1.740700        -0.776093
 H         4.224048         0.460628        -1.806350
 H         2.229594        -1.913823        -2.346264
 H         3.795422        -2.227502        -1.207540
 H         1.779187        -3.317300         0.279741
 H         4.213373        -0.665239         0.815876
