19
Iteration:  1606
 C         0.119724         0.371051         0.524926
 C         1.418751         0.004593        -0.021735
 C         1.975119         0.809082        -1.129008
 C         3.250838        -0.072297        -1.273932
 C         2.693608        -1.495781        -1.524993
 C         2.114028        -1.424276        -0.139170
 O         1.506925        -2.445012         0.589717
 C         3.324557        -0.561056         0.253461
 O         2.427930         0.296543         1.125848
 H        -0.196692        -0.352893         1.303275
 H         0.200830         1.420789         0.874765
 H        -0.723094         0.279992        -0.143733
 H         1.197702         0.606325        -1.867099
 H         2.103255         1.854769        -0.810666
 H         4.055188         0.250110        -1.821857
 H         2.123664        -1.631884        -2.560794
 H         3.482488        -2.298592        -1.613010
 H         1.739791        -2.528151         1.529247
 H         4.234114        -0.970689         0.721800
