19
Iteration:  2407charge 0 multiplicity 1
 C        -0.019378         0.199021         0.423559
 C         1.456428         0.054799        -0.019132
 C         2.062233         0.756608        -1.256408
 C         3.357255        -0.076914        -1.167054
 C         2.705490        -1.531647        -1.521545
 C         2.121732        -1.427591        -0.128391
 O         1.605237        -2.484711         0.592548
 C         3.255405        -0.491800         0.455750
 O         2.380270         0.462460         1.094433
 H        -0.278586        -0.485115         1.172767
 H        -0.229693         1.155163         0.872161
 H        -0.751193        -0.058239        -0.407063
 H         1.595108         0.801502        -2.219493
 H         2.002132         1.770958        -0.872532
 H         4.173273         0.080683        -1.804268
 H         1.998859        -1.705146        -2.354828
 H         3.627191        -2.085775        -1.430105
 H         0.635039        -2.305855         0.814848
 H         4.134180        -0.768297         1.135551
