19
Iteration:  3359
 C        -0.106584         0.253423         0.377980
 C         1.360274         0.028975         0.080099
 C         2.103342         0.742809        -1.167827
 C         3.321840        -0.087879        -1.128202
 C         2.798089        -1.541181        -1.477343
 C         2.140732        -1.416631        -0.087553
 O         1.572948        -2.524715         0.492776
 C         3.316685        -0.434599         0.358378
 O         2.363451         0.451610         1.099438
 H        -0.589144        -0.554422         0.956834
 H        -0.157020         1.233093         0.843297
 H        -0.591076         0.163430        -0.547117
 H         1.475279         0.562292        -2.031954
 H         2.356800         1.797905        -1.007860
 H         4.340324         0.223263        -1.441160
 H         2.386171        -1.641833        -2.474161
 H         3.497539        -2.409415        -1.464509
 H         0.719482        -2.390834         0.843160
 H         4.304526        -0.520445         0.723912
