19
Iteration:  1387
 C         0.116336         0.173259         0.528777
 C         1.453982         0.008379         0.048252
 C         2.079766         0.776523        -1.120967
 C         3.298553        -0.117039        -1.210099
 C         2.677531        -1.539516        -1.581632
 C         2.143923        -1.403878        -0.112644
 O         1.420358        -2.330582         0.598524
 C         3.219626        -0.527850         0.312824
 O         2.411100         0.448702         0.999682
 H        -0.086865        -0.491534         1.423902
 H        -0.073745         1.063164         1.178114
 H        -0.641116        -0.047111        -0.361084
 H         1.586968         0.855496        -2.137872
 H         2.104675         1.861663        -0.824839
 H         4.187255         0.208662        -1.669858
 H         2.145050        -1.548654        -2.521488
 H         3.457292        -2.348271        -1.505452
 H         1.998308        -3.105499         0.911739
 H         4.071391        -0.934491         0.896785
