19
Iteration:   129
 C        -0.122600         0.165692         0.297565
 C         1.387631         0.045703        -0.034924
 C         2.104326         0.904601        -1.144688
 C         3.327748        -0.103079        -1.204085
 C         2.707524        -1.539602        -1.461763
 C         2.216103        -1.443520        -0.040126
 O         1.632581        -2.631798         0.640081
 C         3.298460        -0.414511         0.467802
 O         2.306404         0.515163         1.038825
 H        -0.346601        -0.596872         1.038614
 H        -0.303545         1.159060         0.666862
 H        -0.643402         0.013086        -0.735866
 H         1.695865         1.098191        -2.159782
 H         2.357195         1.806210        -0.586922
 H         4.209005         0.074065        -1.601138
 H         1.958105        -1.785951        -2.177321
 H         3.713992        -2.049458        -1.546141
 H         1.103498        -2.934264        -0.138141
 H         4.138654        -0.468549         1.166839
