19
Iteration:  4415charge 0 multiplicity 1
 C        -0.055477         0.121513         0.227525
 C         1.445973         0.024959         0.022989
 C         2.086679         0.799349        -1.192927
 C         3.375653        -0.055749        -1.145540
 C         2.709245        -1.539439        -1.397126
 C         2.120276        -1.334082        -0.096820
 O         1.521696        -2.382468         0.566980
 C         3.316771        -0.470867         0.386409
 O         2.429385         0.346846         1.157365
 H        -0.579518        -0.745162         0.623665
 H        -0.373466         0.990984         0.816380
 H        -0.540378         0.160638        -0.817145
 H         1.563735         0.653657        -2.152531
 H         1.956020         1.829911        -0.995269
 H         4.367758         0.150447        -1.559683
 H         1.998350        -1.639883        -2.279199
 H         3.524829        -2.192818        -1.276953
 H         0.558254        -2.259010         0.869928
 H         4.262755        -1.089860         0.873480
