19
Iteration:  3658charge 0 multiplicity 1
 C        -0.036941         0.189356         0.227932
 C         1.467349        -0.003443        -0.015109
 C         2.095831         0.777053        -1.181931
 C         3.324461         0.005395        -1.182777
 C         2.788700        -1.480376        -1.480566
 C         2.113959        -1.401862        -0.086010
 O         1.537212        -2.520372         0.589410
 C         3.228249        -0.459463         0.454545
 O         2.373819         0.398929         1.142429
 H        -0.286256        -0.309388         1.198898
 H        -0.408114         1.279867         0.229960
 H        -0.516101        -0.294525        -0.713363
 H         1.538799         0.765251        -2.064422
 H         2.121301         1.822813        -0.954265
 H         4.338062         0.122076        -1.533126
 H         2.221208        -1.785996        -2.366180
 H         3.557868        -2.287660        -1.288913
 H         0.908966        -2.329840         1.253300
 H         4.107013        -0.726311         1.037211
