19
Iteration:   990charge 0 multiplicity 1
 C        -0.048335         0.222157         0.446353
 C         1.377822         0.082110         0.035184
 C         2.063504         0.799832        -1.267188
 C         3.333502        -0.077371        -1.165416
 C         2.784756        -1.524069        -1.507599
 C         2.084201        -1.342575        -0.147435
 O         1.680808        -2.525801         0.638611
 C         3.244252        -0.523529         0.386439
 O         2.362319         0.417611         1.061097
 H        -0.255361        -0.270814         1.431168
 H        -0.244637         1.241450         0.769562
 H        -0.673779        -0.144146        -0.280609
 H         1.625159         0.542644        -2.311886
 H         1.992698         1.930097        -1.005688
 H         4.328225         0.178850        -1.480732
 H         2.153569        -1.594684        -2.496336
 H         3.458954        -2.500607        -1.425055
 H         0.727847        -2.739169         0.342898
 H         4.064233        -0.715625         1.238455
