19
Iteration:  2557charge 0 multiplicity 1
 C        -0.070496         0.179695         0.370216
 C         1.452901        -0.003776         0.030526
 C         2.000284         0.689245        -1.228970
 C         3.312521        -0.057891        -1.168821
 C         2.835543        -1.515144        -1.485514
 C         2.122288        -1.361015        -0.125301
 O         1.562327        -2.420500         0.587892
 C         3.326595        -0.468450         0.440863
 O         2.351209         0.397656         1.070857
 H        -0.458009        -0.553564         1.064171
 H         0.031115         1.144300         0.971199
 H        -0.829764         0.321203        -0.347597
 H         1.530367         0.466652        -2.165120
 H         2.375001         1.717281        -1.077290
 H         3.999988         0.285485        -1.922702
 H         2.522099        -1.640782        -2.561458
 H         3.625024        -2.179053        -1.353192
 H         0.666678        -2.180892         1.026500
 H         4.103970        -0.735266         1.169924
