19
Iteration:  2593charge 0 multiplicity 1
 C        -0.069029         0.298347         0.338901
 C         1.352296         0.093867         0.000427
 C         1.998345         0.721235        -1.201219
 C         3.337391        -0.074514        -1.130726
 C         2.780540        -1.534434        -1.490243
 C         2.161121        -1.451633        -0.048285
 O         1.609993        -2.571853         0.509666
 C         3.244178        -0.461112         0.442287
 O         2.375664         0.457790         1.069836
 H        -0.502083        -0.290788         1.107967
 H        -0.106109         1.291549         0.723213
 H        -0.661449         0.357392        -0.635529
 H         1.389729         0.645869        -2.119849
 H         2.209914         1.768622        -1.114688
 H         4.194689         0.246033        -1.647691
 H         2.233809        -1.740121        -2.395963
 H         3.569974        -2.261121        -1.223410
 H         1.969082        -2.770739         1.428573
 H         4.206954        -0.691650         1.008565
