19
Iteration:  3674charge 0 multiplicity 1
 C        -0.054703         0.184637         0.233928
 C         1.406481         0.095276         0.000462
 C         2.042309         0.842460        -1.180208
 C         3.346287        -0.172533        -1.066904
 C         2.784568        -1.562272        -1.390966
 C         2.147411        -1.394032        -0.087658
 O         1.593714        -2.502472         0.482591
 C         3.290187        -0.504414         0.423812
 O         2.300257         0.434952         1.091195
 H        -0.394849        -0.251148         1.177636
 H        -0.238753         1.227782         0.340007
 H        -0.560993        -0.038792        -0.665678
 H         1.484455         0.689998        -2.176991
 H         2.249501         1.893245        -0.795376
 H         4.128172         0.418175        -1.585366
 H         2.100298        -1.573603        -2.286368
 H         3.547565        -2.315510        -1.494365
 H         1.566226        -2.242551         1.452822
 H         4.199128        -0.768320         1.001506
