19
Iteration:  2709
 C        -0.020784         0.057198         0.417825
 C         1.443739         0.021313        -0.016470
 C         2.126403         0.747658        -1.261063
 C         3.380057        -0.145362        -1.129768
 C         2.779333        -1.546636        -1.441653
 C         2.040009        -1.341358        -0.129327
 O         1.469668        -2.430783         0.556447
 C         3.218576        -0.418748         0.451924
 O         2.379966         0.554080         1.075486
 H        -0.018734        -0.475918         1.328144
 H        -0.329162         1.103727         0.792142
 H        -0.702754        -0.313630        -0.288275
 H         1.411711         0.675652        -2.092739
 H         2.222941         1.807516        -0.954202
 H         4.241216         0.104448        -1.656009
 H         2.173615        -1.514265        -2.396658
 H         3.605737        -2.150158        -1.430224
 H         1.973859        -3.223809         0.260021
 H         4.148970        -0.632196         0.971159
