19
Iteration:  2112
 C         0.030610         0.222168         0.468819
 C         1.380083         0.096461        -0.006063
 C         2.100497         0.796101        -1.170867
 C         3.349246        -0.113154        -1.150758
 C         2.649521        -1.547942        -1.587753
 C         2.192568        -1.447816        -0.143506
 O         1.475647        -2.477916         0.616672
 C         3.270924        -0.497559         0.369057
 O         2.367665         0.417719         1.055280
 H        -0.002255        -0.196480         1.447324
 H        -0.248020         1.321859         0.673468
 H        -0.645057        -0.149768        -0.321128
 H         1.448718         0.845448        -2.044779
 H         2.358988         1.870174        -0.868902
 H         4.161631         0.369176        -1.802726
 H         1.999432        -1.635642        -2.389582
 H         3.414219        -2.273467        -1.853858
 H         2.062780        -2.613209         1.413761
 H         4.204466        -0.843122         0.985553
