19
Iteration:  3148charge 0 multiplicity 1
 C        -0.029311         0.153356         0.272601
 C         1.412772         0.002531         0.029582
 C         2.024693         0.795111        -1.160407
 C         3.374773        -0.085225        -1.214072
 C         2.841680        -1.507229        -1.387992
 C         2.064347        -1.376824        -0.126982
 O         1.449094        -2.432324         0.571786
 C         3.238763        -0.409212         0.410063
 O         2.420213         0.410523         1.115828
 H        -0.450126        -0.592602         0.900194
 H        -0.252115         1.071083         0.714212
 H        -0.600283         0.114828        -0.677069
 H         1.445535         0.546629        -2.072906
 H         2.163403         1.762737        -0.757959
 H         4.263792         0.252180        -1.727945
 H         2.409684        -1.739760        -2.401844
 H         3.648290        -2.187017        -1.372255
 H         2.109203        -2.933390         1.092291
 H         4.149833        -0.974770         0.771146
