19
Iteration:  3344
 C        -0.005722         0.151905         0.309368
 C         1.465616         0.034464         0.038036
 C         1.978004         0.753207        -1.165861
 C         3.362378        -0.119987        -1.173085
 C         2.789793        -1.517298        -1.445789
 C         2.116632        -1.351629        -0.123203
 O         1.554118        -2.474832         0.472167
 C         3.260861        -0.484997         0.471617
 O         2.408368         0.462634         1.104961
 H        -0.419348        -0.655534         1.045985
 H        -0.243334         1.055366         0.881208
 H        -0.579095         0.324122        -0.645118
 H         1.463875         0.588039        -2.136092
 H         2.066824         1.766879        -0.842888
 H         4.178555         0.325839        -1.786703
 H         2.023650        -1.715667        -2.252720
 H         3.587403        -2.177177        -1.318453
 H         0.831375        -2.071218         1.070390
 H         4.023439        -1.000023         1.153965
