19
Iteration:    97
 C        -0.062106         0.199698         0.295482
 C         1.343657         0.080815        -0.021398
 C         1.984162         0.718321        -1.226448
 C         3.402406        -0.089055        -1.075441
 C         2.799221        -1.490275        -1.507312
 C         2.131368        -1.324446        -0.191936
 O         1.738687        -2.418082         0.603123
 C         3.198679        -0.549937         0.464788
 O         2.358917         0.395794         1.157367
 H        -0.337780        -0.458287         1.109297
 H        -0.370661         1.179063         0.575749
 H        -0.709050        -0.259130        -0.517119
 H         1.464323         0.448550        -2.097161
 H         1.875707         1.783273        -1.154261
 H         4.268025         0.312067        -1.333812
 H         2.269722        -1.615065        -2.421622
 H         3.667651        -2.200605        -1.549069
 H         0.739300        -2.524011         0.601174
 H         3.949157        -1.011883         1.111449
