19
Iteration:  2783
 C        -0.132162         0.321725         0.318162
 C         1.343429         0.087859         0.027769
 C         2.016421         0.759789        -1.160638
 C         3.294761        -0.101668        -1.155221
 C         2.826122        -1.497555        -1.491003
 C         2.186433        -1.434168        -0.116443
 O         1.587756        -2.542301         0.566503
 C         3.301957        -0.521552         0.450204
 O         2.378415         0.409343         1.081736
 H        -0.605554        -0.299667         1.081710
 H        -0.176292         1.409719         0.701808
 H        -0.633926         0.141542        -0.583936
 H         1.600564         0.670278        -2.117250
 H         2.215803         1.841566        -1.272355
 H         4.021928         0.229063        -1.844367
 H         2.163308        -1.500326        -2.352166
 H         3.667232        -2.221372        -1.446318
 H         2.155957        -2.870033         1.248034
 H         4.022092        -0.815973         1.081478
