19
Iteration:  1854
 C        -0.018456         0.256454         0.632556
 C         1.368661         0.084947         0.150008
 C         2.089209         0.791986        -1.209839
 C         3.288754        -0.224969        -1.192260
 C         2.710103        -1.481597        -1.556553
 C         2.075262        -1.382191        -0.171322
 O         1.593923        -2.555756         0.497056
 C         3.291203        -0.548663         0.299706
 O         2.486663         0.530107         1.061352
 H         0.082457        -0.221296         1.621365
 H        -0.315661         1.266106         0.816936
 H        -0.734683        -0.132974        -0.213846
 H         1.345106         0.589645        -2.102859
 H         2.254800         1.868256        -1.176725
 H         4.195136         0.184878        -1.636741
 H         1.948340        -1.625191        -2.346471
 H         3.345181        -2.365673        -1.454849
 H         0.633498        -2.389106         0.613769
 H         4.244776        -0.881579         0.855034
