19
Iteration:  2901charge 0 multiplicity 1
 C        -0.086154         0.293707         0.448291
 C         1.377541         0.118908         0.065086
 C         2.141921         0.754899        -1.251535
 C         3.389915        -0.125674        -1.132453
 C         2.749057        -1.524985        -1.501337
 C         2.067150        -1.439309        -0.103829
 O         1.649020        -2.614571         0.490120
 C         3.274753        -0.453678         0.399912
 O         2.300857         0.451543         1.030589
 H        -0.132686        -0.216343         1.459342
 H        -0.408577         1.303770         0.695930
 H        -0.795885        -0.226143        -0.135093
 H         1.605311         0.824709        -2.167922
 H         2.251185         1.819159        -1.053934
 H         4.295831         0.286511        -1.524463
 H         2.153537        -1.682325        -2.358455
 H         3.552564        -2.302517        -1.272440
 H         1.101642        -2.445312         1.337523
 H         4.146652        -0.411862         0.929120
