19
Iteration:  3424
 C        -0.159496         0.365238         0.351280
 C         1.419679         0.044480         0.053978
 C         2.087335         0.786014        -1.163236
 C         3.370131        -0.109306        -1.243051
 C         2.851534        -1.468397        -1.482584
 C         2.152105        -1.396739        -0.108551
 O         1.613841        -2.594300         0.537771
 C         3.237305        -0.537286         0.479672
 O         2.359547         0.370513         1.105467
 H        -0.468814        -0.025303         1.423860
 H        -0.412833         1.451482         0.386677
 H        -0.901726        -0.147047        -0.227596
 H         1.512701         0.608007        -2.034056
 H         2.111822         1.837522        -1.235874
 H         4.302980         0.366796        -1.589006
 H         2.174002        -1.725051        -2.349997
 H         3.643599        -2.243664        -1.538614
 H         0.695354        -2.178974         0.781170
 H         4.210094        -0.746260         0.784533
