19
Iteration:  2376
 C        -0.101675         0.190128         0.351760
 C         1.477454         0.032079         0.078166
 C         1.986766         0.734574        -1.203264
 C         3.343927        -0.056910        -1.207307
 C         2.763380        -1.520229        -1.481852
 C         2.087851        -1.405121        -0.073985
 O         1.518871        -2.446825         0.644296
 C         3.366089        -0.482629         0.321057
 O         2.453354         0.460255         1.150077
 H        -0.573362        -0.577716         0.890668
 H        -0.307102         1.068067         0.836487
 H        -0.607066         0.395835        -0.605347
 H         1.460054         0.671542        -2.159569
 H         2.044825         1.718579        -0.842545
 H         4.127258         0.157211        -1.805284
 H         2.222712        -1.784922        -2.376806
 H         3.572332        -2.288184        -1.436696
 H         1.016312        -2.866718        -0.074727
 H         4.344365        -0.772396         0.802465
