19
Iteration:  1685
 C         0.007302         0.292057         0.564267
 C         1.428729         0.064657         0.105882
 C         1.966374         0.756437        -1.129377
 C         3.299073        -0.111126        -1.261925
 C         2.657868        -1.518126        -1.589141
 C         2.129837        -1.431121        -0.131824
 O         1.534820        -2.471212         0.484895
 C         3.338372        -0.559160         0.284580
 O         2.509472         0.380819         1.113747
 H        -0.036026        -0.087476         1.625491
 H        -0.200388         1.410989         0.550789
 H        -0.823735         0.006530        -0.063357
 H         1.341064         0.679964        -2.014185
 H         2.388471         1.797287        -0.847137
 H         4.172835         0.266595        -1.957865
 H         1.847348        -1.438689        -2.376081
 H         3.376036        -2.461138        -1.505148
 H         1.042631        -2.174167         1.240768
 H         4.194936        -0.651161         0.992501
