19
Iteration:  1109charge 0 multiplicity 1
 C         0.028477         0.177046         0.441284
 C         1.429049         0.037456         0.026101
 C         1.979403         0.775991        -1.205308
 C         3.319342        -0.114854        -1.249475
 C         2.763984        -1.493322        -1.456879
 C         2.079975        -1.363388        -0.110913
 O         1.625387        -2.456790         0.558876
 C         3.248797        -0.500998         0.394915
 O         2.416795         0.429305         1.077774
 H        -0.172739        -0.119297         1.572546
 H        -0.106268         1.271432         0.827853
 H        -0.795645        -0.101563        -0.237266
 H         1.435389         0.732725        -2.162822
 H         2.143333         1.804826        -0.821734
 H         4.211653         0.278066        -1.730792
 H         2.227525        -1.873353        -2.380624
 H         3.352416        -2.353655        -1.345827
 H         0.704421        -2.549846         0.357394
 H         4.080713        -1.028860         0.996333
