19
Iteration:   130
 C        -0.123176         0.163952         0.296427
 C         1.394375         0.051286        -0.047735
 C         2.090072         0.906959        -1.144799
 C         3.327562        -0.099721        -1.203991
 C         2.713670        -1.545068        -1.461660
 C         2.224202        -1.449369        -0.037633
 O         1.631841        -2.625030         0.638503
 C         3.289438        -0.411263         0.472501
 O         2.311716         0.511995         1.043283
 H        -0.340805        -0.591970         1.045662
 H        -0.313924         1.156750         0.651419
 H        -0.631735         0.049638        -0.706884
 H         1.710262         1.100564        -2.103359
 H         2.347144         1.792196        -0.593788
 H         4.218866         0.040168        -1.601998
 H         1.931392        -1.804594        -2.148998
 H         3.689335        -2.070350        -1.559222
 H         1.112270        -2.955801        -0.176021
 H         4.123718        -0.476009         1.153991
