19
Iteration:  4487charge 0 multiplicity 1
 C        -0.082448         0.464880         0.422676
 C         1.314315         0.053823         0.047300
 C         2.065058         0.713269        -1.191515
 C         3.443463        -0.173608        -1.108368
 C         2.860814        -1.545312        -1.521386
 C         2.127487        -1.378613        -0.179333
 O         1.643740        -2.519729         0.539142
 C         3.163527        -0.542414         0.459203
 O         2.294806         0.422769         1.095572
 H        -0.229493         0.441053         1.549988
 H        -0.366939         1.479517         0.161596
 H        -0.728126        -0.284884         0.044220
 H         1.586190         0.596120        -2.190052
 H         2.284542         1.829112        -1.119823
 H         4.378533         0.224519        -1.610445
 H         2.278556        -1.705370        -2.397952
 H         3.689481        -2.279602        -1.238027
 H         1.407362        -3.167378        -0.203400
 H         3.911083        -0.852728         1.050919
