19
Iteration:   671
 C        -0.144622         0.204281         0.440222
 C         1.407966         0.046786         0.072612
 C         2.022854         0.737982        -1.187453
 C         3.305724        -0.125503        -1.190597
 C         2.916817        -1.500970        -1.495164
 C         2.136064        -1.390891        -0.118497
 O         1.481187        -2.435926         0.576212
 C         3.317460        -0.479756         0.322536
 O         2.397432         0.453961         1.135142
 H        -0.458637        -0.390959         1.258706
 H        -0.422375         1.197218         0.541034
 H        -0.661785         0.029005        -0.492204
 H         1.368076         0.603507        -1.963472
 H         2.095263         1.816807        -1.280134
 H         4.129506         0.470642        -1.626016
 H         2.520785        -1.945088        -2.398166
 H         3.774451        -2.081593        -1.241704
 H         1.823203        -3.319841         0.193629
 H         4.159265        -0.731946         0.850725
