19
Iteration:  3341
 C         0.015881         0.139992         0.307451
 C         1.417878         0.044282         0.031019
 C         1.970395         0.758276        -1.175648
 C         3.356695        -0.099493        -1.193418
 C         2.791693        -1.501549        -1.446626
 C         2.116405        -1.338122        -0.117249
 O         1.536295        -2.464402         0.483235
 C         3.278359        -0.505331         0.513294
 O         2.409735         0.452649         1.095721
 H        -0.286600        -0.662446         0.942262
 H        -0.191582         1.073850         0.931899
 H        -0.551727         0.243301        -0.686262
 H         1.487870         0.511035        -2.151334
 H         2.134933         1.854101        -0.827921
 H         4.145541         0.294793        -1.747767
 H         2.063679        -1.735947        -2.211845
 H         3.653721        -2.300872        -1.402541
 H         0.914697        -2.161817         1.110618
 H         4.065405        -1.068415         1.091197
