19
Iteration:  2076
 C        -0.070506         0.258826         0.312736
 C         1.480437         0.144472         0.038448
 C         1.985479         0.746816        -1.137451
 C         3.293936        -0.048251        -1.175943
 C         2.637541        -1.534191        -1.475957
 C         2.060122        -1.373527        -0.075900
 O         1.579405        -2.507691         0.542896
 C         3.341715        -0.515736         0.284847
 O         2.577039         0.337812         1.175154
 H        -0.483832        -0.235746         1.279690
 H        -0.418694         1.297114         0.212920
 H        -0.569035        -0.302233        -0.416165
 H         1.472098         0.566313        -2.127458
 H         2.039600         1.885231        -0.973363
 H         3.978749         0.382971        -1.870980
 H         1.832654        -1.779894        -2.264170
 H         3.504553        -2.185143        -1.451386
 H         1.195650        -2.299913         1.436251
 H         4.148852        -0.920229         0.779164
