19
Iteration:    66charge 0 multiplicity 1
 C        -0.015157         0.236435         0.380509
 C         1.356803        -0.081279         0.024296
 C         2.000287         0.728029        -1.227261
 C         3.390645        -0.015232        -1.189829
 C         2.978094        -1.476023        -1.485616
 C         2.155149        -1.441678        -0.134953
 O         1.507856        -2.476610         0.653665
 C         3.250830        -0.355378         0.325060
 O         2.295822         0.310164         1.125710
 H        -0.259150        -0.085007         1.397717
 H        -0.316460         1.256224         0.324880
 H        -0.707755        -0.148861        -0.330132
 H         1.439056         0.737087        -2.092902
 H         2.008042         1.711091        -0.809368
 H         4.318785         0.462128        -1.510960
 H         2.503652        -1.671606        -2.445579
 H         3.925744        -2.013581        -1.353434
 H         0.577351        -2.311624         0.601736
 H         4.188350        -0.586456         0.785434
