19
Iteration:  2388charge 0 multiplicity 1
 C        -0.014212         0.178253         0.353871
 C         1.391507         0.038103         0.061852
 C         2.017676         0.793059        -1.122503
 C         3.296067        -0.130644        -1.197287
 C         2.779785        -1.541790        -1.459176
 C         2.188515        -1.373084        -0.070247
 O         1.524356        -2.488928         0.613880
 C         3.320067        -0.494120         0.342510
 O         2.411442         0.477606         1.044082
 H        -0.489727        -0.616773         0.925029
 H        -0.056427         1.055792         0.880156
 H        -0.498793         0.153886        -0.624140
 H         1.348354         0.742717        -2.010215
 H         2.291538         1.806754        -1.019067
 H         4.073446         0.419799        -1.576736
 H         2.091363        -1.474050        -2.249198
 H         3.520475        -2.388122        -1.377376
 H         0.584168        -2.676255         0.254699
 H         4.351455        -0.646007         0.707879
