19
Iteration:  2746
 C        -0.033413         0.276173         0.391859
 C         1.399187         0.004120        -0.027078
 C         1.993248         0.727728        -1.237714
 C         3.302520        -0.060560        -1.156516
 C         2.903021        -1.478432        -1.458288
 C         2.119262        -1.470150        -0.181610
 O         1.498534        -2.441357         0.618443
 C         3.263708        -0.443105         0.418774
 O         2.339834         0.384342         1.137166
 H        -0.379113        -0.302549         1.315613
 H         0.034535         1.321000         0.585899
 H        -0.882386         0.275997        -0.451910
 H         1.458401         0.456541        -2.222489
 H         2.169814         1.776227        -0.962500
 H         4.154379         0.336288        -1.843692
 H         2.435047        -1.645616        -2.441713
 H         3.765830        -2.234950        -1.529522
 H         2.170724        -3.076316         0.827264
 H         4.214946        -0.828356         0.985824
