19
Iteration:  3870
 C        -0.048431         0.285316         0.315761
 C         1.428062         0.019414        -0.025454
 C         2.089763         0.815799        -1.251129
 C         3.351366        -0.040780        -1.053740
 C         2.835959        -1.501195        -1.384167
 C         2.134688        -1.450182        -0.079596
 O         1.529762        -2.541636         0.508379
 C         3.196237        -0.501482         0.438590
 O         2.316036         0.413145         1.066310
 H        -0.351653        -0.243263         1.271298
 H        -0.289615         1.366828         0.369016
 H        -0.632643        -0.070330        -0.558290
 H         1.572567         0.608030        -2.184476
 H         2.145498         1.850134        -1.312051
 H         4.266573         0.468505        -1.502837
 H         2.061395        -1.618141        -2.208562
 H         3.549834        -2.311258        -1.415040
 H         2.082752        -2.875893         1.177791
 H         4.141570        -0.809204         0.985395
