19
Iteration:  3062
 C        -0.150054         0.334854         0.351682
 C         1.406217         0.104105         0.082091
 C         2.031481         0.691590        -1.214596
 C         3.289290        -0.066384        -1.208079
 C         2.922398        -1.528417        -1.508962
 C         2.143467        -1.428627        -0.089458
 O         1.566397        -2.568027         0.573988
 C         3.289333        -0.483627         0.420823
 O         2.380999         0.417914         1.146044
 H        -0.298674        -0.029535         1.431561
 H        -0.432432         1.342458         0.433179
 H        -0.706917        -0.123990        -0.515474
 H         1.361748         0.611930        -2.131533
 H         2.317863         1.745192        -1.099302
 H         4.184065         0.395291        -1.621022
 H         2.456352        -1.602118        -2.473460
 H         3.815609        -2.099974        -1.285207
 H         0.573495        -2.690706         0.261881
 H         4.323987        -0.799435         0.825077
