19
Iteration:  1927
 C        -0.091718         0.230574         0.473319
 C         1.410208         0.112801         0.060841
 C         2.084808         0.785652        -1.143948
 C         3.338803        -0.132886        -1.229575
 C         2.587624        -1.471535        -1.561456
 C         2.069788        -1.338290        -0.127126
 O         1.608691        -2.410707         0.633902
 C         3.265303        -0.602808         0.314263
 O         2.460727         0.351777         1.046977
 H        -0.208484        -0.315205         1.398044
 H        -0.230487         1.301313         0.796189
 H        -0.784011        -0.053391        -0.328354
 H         1.521860         0.856662        -2.060258
 H         2.278294         1.839593        -0.892493
 H         4.327695         0.147617        -1.525519
 H         2.044914        -1.671496        -2.523005
 H         3.437615        -2.250456        -1.457310
 H         2.304856        -3.143455         0.762034
 H         4.151285        -0.932991         0.840082
