19
Iteration:  3293charge 0 multiplicity 1
 C        -0.074700         0.179541         0.352322
 C         1.400663         0.051140        -0.036189
 C         2.116404         0.792342        -1.152474
 C         3.370262        -0.133878        -1.165513
 C         2.813428        -1.501999        -1.509606
 C         2.122050        -1.391619        -0.109717
 O         1.531052        -2.398280         0.561076
 C         3.218039        -0.554944         0.430497
 O         2.316884         0.422775         1.056092
 H        -0.305969        -0.453909         1.252564
 H        -0.250379         1.171838         0.717726
 H        -0.811699        -0.015982        -0.371969
 H         1.490576         0.722373        -2.049707
 H         2.324861         1.734727        -0.604075
 H         4.224713         0.531335        -1.579861
 H         2.291631        -1.629933        -2.519938
 H         3.544333        -2.396998        -1.376149
 H         2.193639        -2.705379         1.257179
 H         4.066790        -0.800992         1.020837
