19
Iteration:  2070charge 0 multiplicity 1
 C        -0.052987         0.284391         0.329721
 C         1.452127         0.095639         0.074758
 C         1.986978         0.805993        -1.143252
 C         3.252939        -0.063033        -1.198821
 C         2.667592        -1.546510        -1.492363
 C         2.050692        -1.349614        -0.079998
 O         1.602793        -2.516493         0.558610
 C         3.345782        -0.538180         0.298174
 O         2.562667         0.351316         1.165697
 H        -0.397674        -0.085907         1.247328
 H        -0.644635         1.239822         0.345939
 H        -0.514553        -0.328446        -0.539631
 H         1.595909         0.657883        -2.132816
 H         1.902995         1.871308        -1.140748
 H         4.210219         0.249299        -1.758745
 H         1.955347        -1.790054        -2.259782
 H         3.463759        -2.322534        -1.633292
 H         0.974859        -2.324251         1.333810
 H         4.316317        -0.955751         0.835348
