19
Iteration:   870
 C        -0.008049         0.207664         0.337321
 C         1.450451        -0.020612        -0.003880
 C         2.026481         0.821620        -1.152735
 C         3.292098        -0.064563        -1.198494
 C         2.797326        -1.559614        -1.561778
 C         2.182314        -1.464964        -0.113146
 O         1.525053        -2.418822         0.660485
 C         3.250320        -0.424964         0.449260
 O         2.320397         0.428186         1.086725
 H        -0.370113        -0.341563         1.257655
 H        -0.091750         1.170967         0.807101
 H        -0.659394        -0.133968        -0.544553
 H         1.582769         0.682609        -2.166058
 H         2.232158         1.909111        -0.867981
 H         4.179078         0.306139        -1.651735
 H         2.004376        -1.700591        -2.307175
 H         3.689094        -2.315381        -1.640823
 H         1.685700        -3.274154         0.325859
 H         4.260614        -0.549216         1.098941
