19
Iteration:  2983
 C        -0.010278         0.139377         0.346584
 C         1.405678         0.052128        -0.020247
 C         2.037538         0.838091        -1.137001
 C         3.305079        -0.148081        -1.124606
 C         2.781402        -1.536286        -1.434659
 C         2.116461        -1.374499        -0.116456
 O         1.508307        -2.359604         0.581193
 C         3.242387        -0.480997         0.417438
 O         2.409502         0.405969         1.042158
 H        -0.307887        -0.769512         0.936709
 H        -0.268826         1.174785         0.718053
 H        -0.523560         0.118861        -0.697551
 H         1.471394         0.595479        -2.069875
 H         2.258469         1.864894        -0.842582
 H         4.178577         0.238249        -1.667107
 H         2.086778        -1.769971        -2.339271
 H         3.575601        -2.196882        -1.626533
 H         2.049367        -3.188667         0.782728
 H         4.186665        -0.842987         1.003324
