19
Iteration:  2566charge 0 multiplicity 1
 C        -0.012322         0.222338         0.362646
 C         1.419071         0.028685         0.013445
 C         1.953026         0.659552        -1.231607
 C         3.374524        -0.065442        -1.163822
 C         2.828087        -1.454884        -1.488897
 C         2.174533        -1.411429        -0.072809
 O         1.547557        -2.464655         0.556553
 C         3.258275        -0.458747         0.408410
 O         2.359964         0.388443         1.100850
 H        -0.481285        -0.547140         1.048033
 H        -0.132184         1.228927         0.900462
 H        -0.542706         0.415731        -0.532447
 H         1.348987         0.302522        -2.080912
 H         1.959676         1.811460        -1.236871
 H         4.395704         0.276830        -1.617355
 H         2.221575        -1.661131        -2.430577
 H         3.606047        -2.240267        -1.347837
 H         0.924043        -2.119773         1.282458
 H         4.176728        -0.658746         0.907974
