19
Iteration:   161charge 0 multiplicity 1
 C        -0.053867         0.191732         0.333841
 C         1.430282         0.050002         0.047342
 C         2.021580         0.680132        -1.210812
 C         3.369293        -0.060259        -1.123591
 C         2.809100        -1.443903        -1.521826
 C         2.073030        -1.336952        -0.125200
 O         1.583763        -2.429436         0.637227
 C         3.288676        -0.468020         0.404397
 O         2.304629         0.381027         1.127156
 H        -0.470793        -0.546410         1.045561
 H        -0.334299         1.190130         0.662270
 H        -0.620301         0.103426        -0.690610
 H         1.564825         0.400945        -2.225116
 H         2.072335         1.793141        -1.157102
 H         4.243616         0.217254        -1.550640
 H         2.342440        -1.736743        -2.436596
 H         3.704713        -2.145670        -1.360320
 H         1.834211        -3.199170         0.157516
 H         4.123876        -0.813953         1.026467
