19
Iteration:  4281charge 0 multiplicity 1
 C        -0.069685         0.186266         0.343127
 C         1.360643         0.166299        -0.023176
 C         2.110549         0.813798        -1.209559
 C         3.376955        -0.178465        -1.093263
 C         2.879926        -1.546268        -1.443472
 C         2.165496        -1.441257        -0.108260
 O         1.467758        -2.399982         0.507098
 C         3.214535        -0.546313         0.495268
 O         2.330276         0.474734         1.079471
 H        -0.129451        -0.004462         1.464688
 H        -0.654768         1.095292         0.322609
 H        -0.455913        -0.600223        -0.248917
 H         1.601410         0.611850        -2.105263
 H         2.146557         1.859316        -0.972570
 H         4.401050         0.213411        -1.417274
 H         2.155437        -1.729068        -2.218349
 H         3.634976        -2.243202        -1.639001
 H         1.947760        -3.200381         0.094233
 H         4.052384        -0.803826         1.148752
