19
Iteration:  3415charge 0 multiplicity 1
 C        -0.102601         0.398153         0.404535
 C         1.327098         0.046887         0.014875
 C         2.056920         0.703021        -1.193672
 C         3.413576        -0.043752        -1.163858
 C         2.809069        -1.519317        -1.503679
 C         2.122841        -1.445125        -0.136404
 O         1.660287        -2.553219         0.534860
 C         3.264923        -0.483418         0.427964
 O         2.328144         0.352019         1.117854
 H        -0.244365         0.054968         1.389403
 H        -0.400285         1.483720         0.356776
 H        -0.738287        -0.026229        -0.364218
 H         1.434447         0.588808        -2.060557
 H         2.261882         1.809030        -1.010638
 H         4.298478         0.267544        -1.663978
 H         2.397254        -1.398858        -2.451460
 H         3.614121        -2.319201        -1.324189
 H         0.697811        -2.382113         0.846108
 H         4.102953        -0.910349         0.983242
