19
Iteration:  4785
 C         0.004746         0.418370         0.430595
 C         1.383913         0.098209         0.026830
 C         2.082843         0.757103        -1.130300
 C         3.338303        -0.097563        -1.146115
 C         2.789344        -1.492626        -1.518582
 C         2.037771        -1.402869        -0.225838
 O         1.591918        -2.547515         0.489466
 C         3.266241        -0.624568         0.406141
 O         2.372060         0.354412         1.120860
 H        -0.208298         0.125896         1.435951
 H        -0.198972         1.465582         0.329527
 H        -0.749600        -0.130347        -0.163148
 H         1.664904         0.625624        -2.175747
 H         2.272328         1.807231        -0.734912
 H         4.215340         0.413754        -1.386894
 H         2.155251        -1.712933        -2.319704
 H         3.654967        -2.165906        -1.443411
 H         0.766259        -2.266414         0.932108
 H         4.104890        -1.119019         0.983328
