19
Iteration:  4837
 C        -0.020612         0.468316         0.379014
 C         1.380135         0.074066         0.074081
 C         2.065577         0.838136        -1.091459
 C         3.310243        -0.153449        -1.170364
 C         2.752750        -1.503284        -1.493782
 C         2.078397        -1.473660        -0.163359
 O         1.615261        -2.567989         0.569624
 C         3.261620        -0.563557         0.429250
 O         2.413393         0.364405         1.049562
 H        -0.634836        -0.285310         0.894143
 H         0.046650         1.339773         1.044989
 H        -0.590249         0.751947        -0.617405
 H         1.561089         0.708158        -2.070165
 H         2.117080         1.927349        -0.811602
 H         4.289714         0.211432        -1.485147
 H         2.084288        -1.376460        -2.483159
 H         3.517087        -2.393089        -1.591504
 H         1.111510        -3.045012        -0.076628
 H         4.042436        -0.992518         1.075265
