19
Iteration:   697charge 0 multiplicity 1
 C        -0.000154         0.184328         0.396262
 C         1.358971         0.008287        -0.061406
 C         2.058944         0.757941        -1.198681
 C         3.347761        -0.112155        -1.113403
 C         2.779244        -1.483218        -1.496038
 C         2.107954        -1.357006        -0.113788
 O         1.585696        -2.409530         0.632100
 C         3.232407        -0.474988         0.396890
 O         2.358090         0.405723         1.083723
 H        -0.003198        -0.569085         1.249330
 H        -0.368777         1.202732         0.696034
 H        -0.714377        -0.083354        -0.453430
 H         1.459936         0.761417        -2.143314
 H         2.104671         1.834481        -1.112789
 H         4.118562         0.467173        -1.537353
 H         2.100097        -1.482689        -2.329835
 H         3.434199        -2.437149        -1.536996
 H         1.947744        -3.278197         0.252838
 H         4.133627        -0.793373         1.090020
