19
Iteration:  1269charge 0 multiplicity 1
 C         0.010541         0.263231         0.524380
 C         1.401688         0.062148         0.060235
 C         2.078292         0.769142        -1.189916
 C         3.289931        -0.097818        -1.168860
 C         2.707034        -1.545237        -1.521441
 C         2.051089        -1.400356        -0.142742
 O         1.609794        -2.471069         0.612266
 C         3.223875        -0.520481         0.343799
 O         2.467226         0.454251         1.030291
 H        -0.157153        -0.090130         1.532254
 H        -0.176969         1.293508         0.813500
 H        -0.660119        -0.131861        -0.174889
 H         1.413614         0.709757        -2.091278
 H         2.210619         1.910421        -1.141761
 H         4.147144         0.361152        -1.536840
 H         2.180084        -1.534807        -2.513468
 H         3.438659        -2.495066        -1.484256
 H         1.232268        -3.037648        -0.043304
 H         3.931306        -1.245491         0.838106
