19
Iteration:  4335
 C        -0.040052         0.390749         0.314804
 C         1.355327         0.115585         0.047746
 C         2.011655         0.719879        -1.187385
 C         3.289861        -0.096004        -1.069244
 C         2.966085        -1.585145        -1.509904
 C         2.207596        -1.496222        -0.155721
 O         1.499752        -2.509430         0.507609
 C         3.209970        -0.503267         0.494768
 O         2.317239         0.450327         1.105903
 H        -0.613502        -0.367738         0.999227
 H        -0.090325         1.431895         0.731046
 H        -0.569014         0.645310        -0.587634
 H         1.557312         0.339882        -2.032637
 H         2.094774         1.793322        -1.236538
 H         4.126004         0.608621        -1.427608
 H         2.365274        -1.755534        -2.385407
 H         3.745588        -2.421357        -1.548213
 H         2.188205        -3.254289         0.687991
 H         4.046725        -0.787185         1.106055
