19
Iteration:  2103
 C         0.008169         0.244913         0.449422
 C         1.486590         0.072292         0.044443
 C         2.024710         0.810415        -1.135664
 C         3.304278        -0.149572        -1.223602
 C         2.688881        -1.552314        -1.628975
 C         2.108503        -1.425929        -0.091013
 O         1.511906        -2.443696         0.580760
 C         3.310009        -0.514301         0.366868
 O         2.391265         0.428780         1.092937
 H        -0.332929        -0.300570         1.279992
 H        -0.197224         1.332349         0.322744
 H        -0.617736        -0.305728        -0.363360
 H         1.610594         0.673375        -2.126071
 H         2.160842         1.790913        -0.668849
 H         4.228529         0.206695        -1.785050
 H         1.868458        -1.521839        -2.273566
 H         3.530343        -2.242666        -1.764026
 H         1.823646        -2.645012         1.498166
 H         4.234348        -0.740127         1.061100
