19
Iteration:  2363
 C        -0.047219         0.246552         0.355157
 C         1.366536         0.045778         0.066508
 C         2.039215         0.738498        -1.181844
 C         3.272570        -0.110604        -1.238067
 C         2.755351        -1.515480        -1.488327
 C         2.151254        -1.349321        -0.109354
 O         1.542332        -2.407281         0.631754
 C         3.272447        -0.456099         0.420657
 O         2.483959         0.364421         1.091913
 H        -0.314123        -0.635628         0.835161
 H        -0.244351         1.080429         1.005860
 H        -0.606951         0.180044        -0.583583
 H         1.372313         0.461061        -1.983630
 H         2.172867         1.819161        -1.279135
 H         4.184302         0.372406        -1.574843
 H         2.074840        -1.620451        -2.357811
 H         3.613188        -2.162519        -1.352320
 H         1.423813        -3.249643         0.141720
 H         4.120338        -0.910228         1.021071
