19
Iteration:  2534charge 0 multiplicity 1
 C        -0.043622         0.121548         0.456082
 C         1.418596         0.090750        -0.050883
 C         2.031117         0.841838        -1.190947
 C         3.396845        -0.086146        -1.174908
 C         2.827689        -1.592671        -1.469545
 C         2.177828        -1.403810        -0.101841
 O         1.559761        -2.420209         0.647603
 C         3.151170        -0.471477         0.321556
 O         2.354180         0.433176         1.040849
 H        -0.256956        -0.697134         1.177060
 H        -0.317853         1.144834         0.910919
 H        -0.729140        -0.022439        -0.306395
 H         1.511898         0.846982        -2.134533
 H         2.484461         1.803387        -0.824614
 H         4.494136         0.056859        -1.464344
 H         2.275181        -1.924818        -2.408851
 H         3.608413        -2.333630        -1.357347
 H         0.659151        -2.592346         0.443701
 H         4.069219        -0.650047         0.815516
