19
Iteration:  2849
 C        -0.061509         0.132594         0.369942
 C         1.411347         0.032153         0.060484
 C         2.013435         0.823730        -1.187805
 C         3.322803        -0.101129        -1.184884
 C         2.870996        -1.542099        -1.470966
 C         2.158903        -1.433931        -0.125185
 O         1.473103        -2.453914         0.559466
 C         3.316780        -0.414296         0.327598
 O         2.426320         0.381102         1.150330
 H        -0.539164        -0.261437         1.284537
 H        -0.428946         1.273485         0.445048
 H        -0.464833        -0.244872        -0.536954
 H         1.448265         0.658595        -2.122669
 H         2.149679         1.979349        -1.138262
 H         4.087465         0.359315        -1.754995
 H         2.257579        -1.638080        -2.397198
 H         3.697395        -2.266007        -1.252895
 H         0.795324        -1.994384         1.228815
 H         4.154786        -0.836830         0.760806
