19
Iteration:  2075charge 0 multiplicity 1
 C        -0.067682         0.265379         0.313993
 C         1.482473         0.140303         0.037997
 C         1.983458         0.753912        -1.132644
 C         3.288724        -0.048092        -1.178717
 C         2.644672        -1.536032        -1.476599
 C         2.053323        -1.369087        -0.074147
 O         1.583230        -2.509136         0.547127
 C         3.346673        -0.520219         0.284745
 O         2.576304         0.338509         1.176148
 H        -0.489864        -0.216015         1.290355
 H        -0.470161         1.274414         0.239152
 H        -0.564876        -0.309524        -0.439743
 H         1.506952         0.589820        -2.155010
 H         1.998146         1.885339        -1.011482
 H         3.993312         0.353918        -1.844212
 H         1.811002        -1.802806        -2.284112
 H         3.524029        -2.220386        -1.490331
 H         1.168626        -2.316365         1.391553
 H         4.139609        -0.910460         0.779564
