19
Iteration:  2253charge 0 multiplicity 1
 C        -0.009961         0.209555         0.414094
 C         1.470873         0.005407         0.053090
 C         2.031250         0.800092        -1.164350
 C         3.261128        -0.064326        -1.155065
 C         2.756427        -1.575833        -1.534419
 C         2.084831        -1.434970        -0.107809
 O         1.565686        -2.411136         0.622554
 C         3.254475        -0.513091         0.396852
 O         2.433893         0.429258         1.045317
 H        -0.134150        -0.055941         1.419861
 H        -0.185847         1.313112         0.475087
 H        -0.752371        -0.208050        -0.241590
 H         1.576090         0.713869        -2.148778
 H         2.289179         1.870877        -0.824638
 H         4.275585         0.341723        -1.606737
 H         1.947563        -1.621449        -2.348976
 H         3.508577        -2.224445        -1.970966
 H         0.942824        -3.092486         0.225621
 H         4.289647        -0.615139         0.853856
