19
Iteration:  3858
 C        -0.055355         0.303090         0.277267
 C         1.355221         0.058990         0.055379
 C         1.982846         0.715780        -1.211330
 C         3.447492        -0.067329        -1.078235
 C         2.854962        -1.484704        -1.462758
 C         2.132507        -1.359839        -0.120915
 O         1.469490        -2.513249         0.533422
 C         3.307067        -0.453401         0.425018
 O         2.297218         0.352829         1.083074
 H        -0.440503        -0.113536         1.313519
 H        -0.242029         1.389671         0.288042
 H        -0.654000        -0.247472        -0.461999
 H         1.562988         0.397982        -2.143253
 H         2.111360         1.694834        -0.959514
 H         4.527048         0.190801        -1.503524
 H         2.380932        -1.702156        -2.484330
 H         3.679649        -2.139414        -1.346588
 H         2.148015        -2.864756         1.228561
 H         4.286230        -0.754888         0.931420
