19
Iteration:  3039
 C         0.030714         0.191438         0.416782
 C         1.445702         0.013414        -0.055383
 C         1.969391         0.724658        -1.188095
 C         3.378873        -0.076788        -1.092808
 C         2.814934        -1.508340        -1.457820
 C         2.106091        -1.374137        -0.107763
 O         1.524418        -2.408474         0.547576
 C         3.287722        -0.500784         0.449032
 O         2.349457         0.437922         1.050981
 H        -0.229410        -0.184351         1.438606
 H        -0.249627         1.213706         0.478666
 H        -0.542695        -0.199753        -0.510188
 H         1.335488         0.464651        -2.084121
 H         2.027071         1.799053        -1.121370
 H         4.242416         0.492961        -1.348654
 H         2.109968        -1.747412        -2.277919
 H         3.548353        -2.196816        -1.199855
 H         1.026559        -2.916529        -0.030015
 H         4.286945        -0.991186         0.854352
