19
Iteration:  4002charge 0 multiplicity 1
 C        -0.052004         0.277859         0.350598
 C         1.408396         0.121203         0.004865
 C         2.092448         0.748149        -1.198628
 C         3.387286        -0.151565        -1.050017
 C         2.832583        -1.535906        -1.453538
 C         2.068721        -1.439743        -0.130448
 O         1.596908        -2.594679         0.447792
 C         3.187850        -0.421191         0.464723
 O         2.294005         0.471135         1.072339
 H        -0.165365        -0.051342         1.438457
 H        -0.270489         1.421126         0.395894
 H        -0.804247        -0.336855        -0.313133
 H         1.664692         0.476816        -2.152898
 H         2.389701         1.734898        -0.942945
 H         4.236454         0.233412        -1.584742
 H         2.382650        -1.539820        -2.466548
 H         3.612652        -2.347425        -1.557062
 H         1.388829        -2.330891         1.377431
 H         4.138404        -0.638381         0.968615
