19
Iteration:  2449
 C        -0.042193         0.307933         0.430272
 C         1.360001         0.012964        -0.041226
 C         1.988672         0.803512        -1.162710
 C         3.310441        -0.090008        -1.211887
 C         2.851467        -1.529281        -1.528922
 C         2.121099        -1.413370        -0.105375
 O         1.538875        -2.493965         0.549921
 C         3.284701        -0.569929         0.450943
 O         2.361631         0.437287         1.105502
 H        -0.195907         0.063150         1.487877
 H        -0.315297         1.385610         0.100568
 H        -0.772994        -0.264460        -0.256432
 H         1.570797         0.632993        -2.152634
 H         2.222745         1.892320        -1.028442
 H         4.186884         0.342699        -1.690652
 H         2.321956        -1.846749        -2.495208
 H         3.593217        -2.300309        -1.353302
 H         2.155005        -2.500912         1.362267
 H         4.263415        -0.926810         0.905874
