19
Iteration:   147charge 0 multiplicity 1
 C        -0.030473         0.194058         0.260052
 C         1.365058         0.066870        -0.013041
 C         2.062961         0.832197        -1.198816
 C         3.265198        -0.088311        -1.145985
 C         2.793820        -1.574551        -1.413907
 C         2.217513        -1.436734        -0.070367
 O         1.628104        -2.460054         0.583520
 C         3.216755        -0.465385         0.466194
 O         2.331608         0.438856         1.114909
 H        -0.329360        -0.597453         0.973904
 H        -0.204232         1.171463         0.778867
 H        -0.682655        -0.031392        -0.608954
 H         1.312241         0.754718        -2.113544
 H         2.279709         1.903986        -0.932936
 H         4.220458         0.490201        -1.640238
 H         2.043307        -1.492079        -2.249573
 H         3.491158        -2.432228        -1.570194
 H         1.538275        -3.255884         0.005627
 H         4.222802        -0.672356         0.922327
