19
Iteration:  1750
 C         0.028602         0.229191         0.540376
 C         1.447406         0.087052         0.117017
 C         2.107471         0.794162        -1.171974
 C         3.301598        -0.188769        -1.246866
 C         2.557348        -1.493795        -1.551035
 C         2.136209        -1.458199        -0.085287
 O         1.501186        -2.450570         0.519439
 C         3.287297        -0.523420         0.307176
 O         2.437939         0.493737         1.091548
 H        -0.268636        -0.598644         1.198495
 H         0.052514         1.264822         0.952809
 H        -0.683255         0.041055        -0.205547
 H         1.389479         0.732952        -1.924426
 H         2.425193         1.791142        -0.756412
 H         4.134529         0.247743        -1.919904
 H         1.851153        -1.317861        -2.455696
 H         3.269489        -2.399566        -1.872827
 H         2.046137        -3.180843         0.935754
 H         4.298603        -0.787345         0.699846
