19
Iteration:  2052
 C        -0.019198         0.246532         0.439868
 C         1.487652         0.071167         0.081188
 C         2.048979         0.757892        -1.178517
 C         3.295592        -0.138589        -1.220408
 C         2.673029        -1.468882        -1.552955
 C         2.125807        -1.430906        -0.108620
 O         1.627778        -2.507891         0.592336
 C         3.244124        -0.522038         0.364111
 O         2.428998         0.410996         1.077702
 H        -0.482628        -0.108673         1.434884
 H        -0.078820         1.322940         0.416798
 H        -0.708561        -0.147581        -0.338287
 H         1.234124         0.896098        -2.004959
 H         2.416650         1.766891        -0.890817
 H         4.121956         0.262027        -1.752492
 H         1.941616        -1.532220        -2.490211
 H         3.464915        -2.284184        -1.539825
 H         0.741222        -2.189773         0.978148
 H         4.115725        -0.790434         0.911239
