19
Iteration:  1205
 C        -0.057485         0.218621         0.485804
 C         1.416353         0.015293         0.062831
 C         2.074706         0.780347        -1.251727
 C         3.265544        -0.075522        -1.170341
 C         2.678216        -1.443605        -1.533863
 C         2.105564        -1.381340        -0.126959
 O         1.573946        -2.457024         0.612534
 C         3.306265        -0.542416         0.331438
 O         2.473140         0.349383         1.050200
 H        -0.342622        -0.520295         1.320963
 H        -0.258717         1.214587         0.959429
 H        -0.708331         0.015049        -0.319957
 H         1.581896         0.598752        -2.166136
 H         2.404270         1.832098        -1.131953
 H         4.143218         0.179987        -1.685880
 H         2.259487        -1.588982        -2.550906
 H         3.394950        -2.292601        -1.621710
 H         1.073651        -2.018204         1.339191
 H         4.168488        -0.724463         1.024915
