19
Iteration:   297charge 0 multiplicity 1
 C        -0.080495         0.252396         0.429829
 C         1.331820         0.049488        -0.046146
 C         2.018086         0.777588        -1.135094
 C         3.307352        -0.040882        -1.195214
 C         2.865188        -1.608542        -1.545767
 C         2.163558        -1.424758        -0.157307
 O         1.702349        -2.417444         0.638163
 C         3.286393        -0.524531         0.415911
 O         2.279388         0.373782         1.085980
 H        -0.157555        -0.402416         1.365549
 H        -0.449014         1.326077         0.609165
 H        -0.696241        -0.042166        -0.379930
 H         1.583859         0.818477        -2.073910
 H         2.131867         1.817418        -0.768206
 H         4.236800         0.537553        -1.654287
 H         2.294486        -1.791348        -2.566911
 H         3.698569        -2.283630        -1.466929
 H         0.780244        -2.237940         0.426361
 H         4.106332        -0.981819         1.071335
