19
Iteration:  2175
 C         0.008296         0.297694         0.459862
 C         1.468921        -0.008056         0.037076
 C         1.906726         0.731059        -1.234702
 C         3.271831        -0.027996        -1.198502
 C         2.752964        -1.499881        -1.475654
 C         2.211217        -1.448463        -0.067350
 O         1.371902        -2.481935         0.546427
 C         3.374340        -0.441423         0.380029
 O         2.457116         0.407363         1.088589
 H        -0.545299        -0.492300         1.015299
 H        -0.004075         1.291557         0.970567
 H        -0.550670         0.431382        -0.437351
 H         1.460516         0.488829        -2.196674
 H         2.225794         1.788501        -1.086878
 H         4.203130         0.212896        -1.832315
 H         2.114950        -1.633521        -2.446395
 H         3.627478        -2.205090        -1.413725
 H         1.943762        -3.202986         0.987560
 H         4.257807        -0.884273         0.813618
