19
Iteration:  4966charge 0 multiplicity 1
 C        -0.016887         0.530799         0.430242
 C         1.387769         0.052394        -0.006198
 C         2.134167         0.791232        -1.127883
 C         3.279755        -0.101328        -1.091420
 C         2.748860        -1.410680        -1.641542
 C         2.086380        -1.460133        -0.104203
 O         1.506171        -2.571562         0.507358
 C         3.205387        -0.616721         0.407206
 O         2.432951         0.265027         1.108922
 H         0.033016         0.278861         1.482131
 H        -0.110698         1.549781         0.022814
 H        -0.769775        -0.271479         0.031651
 H         1.418149         0.752851        -2.107058
 H         2.310083         1.868069        -0.888979
 H         4.278004         0.408741        -1.425092
 H         1.913222        -1.457134        -2.290184
 H         3.588550        -2.052236        -1.727543
 H         2.176717        -2.781072         1.187551
 H         4.160595        -0.995584         0.797607
