19
Iteration:   866charge 0 multiplicity 1
 C        -0.009089         0.198511         0.322770
 C         1.446179        -0.020355         0.021958
 C         2.016276         0.793743        -1.120284
 C         3.318867        -0.082134        -1.182401
 C         2.811671        -1.530525        -1.568730
 C         2.167434        -1.492248        -0.088663
 O         1.529023        -2.393468         0.639366
 C         3.257017        -0.427637         0.436582
 O         2.333371         0.434081         1.079874
 H        -0.406142        -0.370489         1.132885
 H        -0.079691         1.235009         0.729480
 H        -0.612016        -0.044827        -0.441087
 H         1.456103         0.616236        -2.055960
 H         2.248255         1.873700        -0.993895
 H         4.108626         0.306225        -1.873522
 H         1.950807        -1.769903        -2.261389
 H         3.662858        -2.122560        -1.550092
 H         1.624839        -3.320707         0.244646
 H         4.082406        -0.486825         1.053387
