19
Iteration:  4359
 C        -0.061969         0.297807         0.323323
 C         1.353449         0.040876        -0.023995
 C         2.140904         0.753907        -1.250106
 C         3.413460        -0.106479        -1.162948
 C         2.802947        -1.468816        -1.407018
 C         2.080959        -1.350633        -0.134424
 O         1.543550        -2.508009         0.558877
 C         3.226908        -0.481638         0.440620
 O         2.281875         0.346506         1.107928
 H        -0.413110        -0.662947         0.745236
 H        -0.163144         1.120450         1.041660
 H        -0.742605         0.730237        -0.429335
 H         1.661187         0.636106        -2.209833
 H         2.203168         1.772112        -0.969870
 H         4.416841         0.320197        -1.507457
 H         2.450334        -1.684949        -2.439459
 H         3.391410        -2.319017        -1.119548
 H         2.273837        -2.731579         1.152978
 H         4.160993        -0.983930         0.978768
