19
Iteration:   648charge 0 multiplicity 1
 C         0.033350         0.196685         0.428809
 C         1.479883        -0.032233        -0.006360
 C         1.922929         0.704318        -1.216347
 C         3.323934        -0.043458        -1.129382
 C         2.810863        -1.514808        -1.422719
 C         2.206826        -1.413468        -0.100641
 O         1.421106        -2.464429         0.506988
 C         3.308638        -0.412567         0.430409
 O         2.358335         0.448935         1.060739
 H        -0.263056        -0.266595         1.321718
 H        -0.041152         1.260147         0.485324
 H        -0.591137         0.022417        -0.395739
 H         1.356445         0.691846        -2.090339
 H         1.833333         1.758411        -0.952436
 H         4.206210         0.398299        -1.708856
 H         2.147539        -1.760039        -2.274467
 H         3.639297        -2.146855        -1.466575
 H         2.002541        -3.222501         0.490404
 H         4.132506        -0.466276         1.043634
