19
Iteration:  3451charge 0 multiplicity 1
 C         0.044373         0.216240         0.285587
 C         1.473180         0.008039         0.028906
 C         2.014499         0.779371        -1.108297
 C         3.353359        -0.136377        -1.111300
 C         2.750595        -1.511301        -1.417830
 C         2.088408        -1.365054        -0.114189
 O         1.524400        -2.529012         0.472976
 C         3.260063        -0.433622         0.401755
 O         2.382657         0.432274         1.099556
 H        -0.231096        -0.329658         1.127885
 H        -0.381926         1.202204         0.365619
 H        -0.515064        -0.482529        -0.380136
 H         1.445261         0.798767        -2.120486
 H         2.179966         1.887393        -0.861011
 H         4.180857         0.394019        -1.584975
 H         2.289955        -1.604900        -2.397138
 H         3.453138        -2.382605        -1.422630
 H         0.901884        -2.006159         1.116365
 H         4.288681        -0.785866         0.760924
