19
Iteration:  1981charge 0 multiplicity 1
 C        -0.013635         0.260671         0.506353
 C         1.396975         0.082123         0.106513
 C         1.916910         0.707091        -1.189764
 C         3.295832        -0.112224        -1.191747
 C         2.772394        -1.547707        -1.469688
 C         2.110843        -1.369991        -0.124430
 O         1.516178        -2.449669         0.567767
 C         3.342596        -0.488759         0.322085
 O         2.509820         0.407409         1.063453
 H        -0.481080        -0.438422         1.170552
 H         0.100330         1.307381         0.947724
 H        -0.598231         0.290217        -0.444342
 H         1.449041         0.603399        -2.143502
 H         2.020846         1.822259        -1.109296
 H         4.202299         0.288148        -1.669119
 H         2.087532        -1.684317        -2.292890
 H         3.637288        -2.257868        -1.464809
 H         0.957720        -3.009575        -0.079536
 H         4.285019        -0.784385         0.821331
