19
Iteration:  4347
 C        -0.052649         0.389635         0.330440
 C         1.415997         0.102968         0.012421
 C         2.051705         0.707394        -1.251018
 C         3.357135        -0.120006        -1.110879
 C         2.924636        -1.540119        -1.488298
 C         2.070973        -1.403196        -0.109999
 O         1.553441        -2.513478         0.519812
 C         3.166894        -0.499664         0.439768
 O         2.279410         0.400758         1.158475
 H        -0.553195        -0.536195         0.787697
 H        -0.126961         1.173963         1.116914
 H        -0.558427         0.470845        -0.617556
 H         1.442440         0.561135        -2.090004
 H         2.247089         1.753538        -1.151973
 H         4.391636         0.133249        -1.562583
 H         2.360990        -1.661330        -2.425056
 H         3.847669        -2.119679        -1.432365
 H         2.238240        -3.017502         0.954809
 H         4.093319        -0.763558         1.040277
