19
Iteration:  3261charge 0 multiplicity 1
 C        -0.041677         0.316928         0.270073
 C         1.405868         0.066997         0.079360
 C         2.052954         0.717456        -1.221812
 C         3.387908        -0.086908        -1.113698
 C         2.790564        -1.469269        -1.495076
 C         2.100584        -1.424113        -0.092851
 O         1.537376        -2.549068         0.581935
 C         3.287582        -0.443982         0.382866
 O         2.305842         0.378257         1.139909
 H        -0.335991        -0.114145         1.263353
 H        -0.096748         1.410266         0.321504
 H        -0.672297        -0.113689        -0.461382
 H         1.355074         0.577448        -2.130531
 H         2.005129         1.859801        -0.974000
 H         4.189281         0.651185        -1.467903
 H         2.282929        -1.589972        -2.458749
 H         3.456166        -2.448903        -1.449334
 H         2.228864        -3.166121         0.599014
 H         4.220827        -0.627137         0.848547
