19
Iteration:   375charge 0 multiplicity 1
 C        -0.037388         0.208289         0.359986
 C         1.403906         0.030262         0.038109
 C         2.006502         0.780108        -1.143819
 C         3.296112        -0.000966        -1.186204
 C         2.868399        -1.490708        -1.442804
 C         2.101949        -1.468446        -0.143649
 O         1.469537        -2.439313         0.619334
 C         3.316372        -0.417247         0.299773
 O         2.370957         0.364605         1.101502
 H        -0.264483        -0.463721         1.205772
 H        -0.255654         1.251607         0.733809
 H        -0.710491        -0.104373        -0.469143
 H         1.412343         0.583373        -1.990835
 H         2.142467         1.825643        -0.957316
 H         4.255987         0.318978        -1.846800
 H         2.346519        -2.104964        -2.295711
 H         3.799100        -2.063765        -1.317901
 H         2.105216        -3.134203         0.513460
 H         4.178309        -0.768509         0.858503
