19
Iteration:  3165
 C        -0.007100         0.080632         0.343986
 C         1.442981         0.040858         0.025562
 C         2.066527         0.730724        -1.217104
 C         3.351778        -0.039948        -1.151465
 C         2.844453        -1.478281        -1.509001
 C         2.137573        -1.403527        -0.091919
 O         1.353723        -2.399103         0.610513
 C         3.332423        -0.467029         0.416281
 O         2.334795         0.442113         1.102604
 H        -0.304895        -0.777999         0.988894
 H        -0.176391         1.149269         0.794893
 H        -0.644100        -0.046992        -0.559654
 H         1.558482         0.762303        -2.240423
 H         2.208994         1.869273        -1.140855
 H         4.259845         0.391309        -1.584904
 H         2.253796        -1.726152        -2.427256
 H         3.611767        -2.315342        -1.381390
 H         1.911884        -3.168535         0.649546
 H         4.206751        -0.546192         1.041063
