19
Iteration:  4165
 C        -0.119320         0.363193         0.343917
 C         1.357884         0.092883        -0.068522
 C         2.049813         0.708811        -1.278670
 C         3.429647        -0.095183        -1.167606
 C         2.909693        -1.496892        -1.371285
 C         2.159460        -1.436976        -0.128252
 O         1.520182        -2.542140         0.575143
 C         3.255248        -0.422576         0.505329
 O         2.262241         0.388966         1.091743
 H        -0.352545        -0.438326         1.020874
 H        -0.051808         1.123440         1.129708
 H        -0.936373         0.642737        -0.373096
 H         1.637634         0.511526        -2.315302
 H         2.407000         1.718655        -1.089380
 H         4.289859         0.418425        -1.550396
 H         2.282259        -1.583592        -2.339267
 H         3.639552        -2.307194        -1.559669
 H         1.890912        -3.452746         0.563912
 H         4.092998        -0.904906         1.165103
