19
Iteration:  3034
 C         0.006551         0.152242         0.414441
 C         1.430525         0.043577        -0.034891
 C         1.996699         0.725560        -1.224590
 C         3.364855        -0.069286        -1.085666
 C         2.776055        -1.525882        -1.471940
 C         2.171581        -1.340097        -0.105383
 O         1.510499        -2.391646         0.556804
 C         3.303326        -0.547976         0.465924
 O         2.315907         0.457170         1.028002
 H         0.014075        -0.232411         1.435488
 H        -0.322583         1.238606         0.646215
 H        -0.540125        -0.189695        -0.415456
 H         1.437444         0.399888        -2.094770
 H         2.224848         1.792769        -0.939676
 H         4.325393         0.474569        -1.311043
 H         2.088979        -1.620086        -2.360488
 H         3.601962        -2.326032        -1.307950
 H         1.076529        -3.102504        -0.038852
 H         4.209398        -0.900178         0.876410
