19
Iteration:  4730
 C         0.008282         0.063112         0.352969
 C         1.456648         0.125548        -0.008265
 C         2.050682         0.801274        -1.165539
 C         3.395657        -0.177827        -1.113806
 C         2.713994        -1.486552        -1.475675
 C         2.102951        -1.369751        -0.157940
 O         1.300551        -2.333237         0.438617
 C         3.283585        -0.565818         0.449981
 O         2.525754         0.415851         1.196535
 H        -0.140544        -0.160969         1.374362
 H        -0.442427         1.004963         0.145086
 H        -0.524754        -0.577390        -0.392087
 H         1.420215         0.863102        -2.116669
 H         2.294525         1.941537        -1.086392
 H         4.373942         0.146166        -1.326079
 H         2.033160        -1.548257        -2.219312
 H         3.432807        -2.288071        -1.643758
 H         1.784386        -2.840839         1.052839
 H         4.336571        -0.702824         0.810386
