19
Iteration:  1440charge 0 multiplicity 1
 C         0.066464         0.309589         0.458353
 C         1.434105         0.069844         0.107535
 C         1.949201         0.739268        -1.142453
 C         3.240860        -0.122042        -1.181257
 C         2.687602        -1.537994        -1.520665
 C         2.100494        -1.393193        -0.131105
 O         1.563871        -2.537517         0.474238
 C         3.305303        -0.533685         0.366553
 O         2.487080         0.424650         1.074302
 H        -0.357777        -0.156829         1.358056
 H         0.227420         1.372675         0.713571
 H        -0.739764         0.102415        -0.347654
 H         1.444876         0.650822        -2.107853
 H         2.210071         1.732932        -0.846675
 H         3.998338         0.370298        -1.798568
 H         2.002060        -1.700818        -2.432867
 H         3.264139        -2.443976        -1.667607
 H         1.374657        -2.082933         1.359305
 H         4.292101        -0.593910         0.846967
