19
Iteration:  3922charge 0 multiplicity 1
 C        -0.074776         0.202553         0.267603
 C         1.418654         0.036593        -0.094237
 C         2.057949         0.797620        -1.251634
 C         3.363330        -0.094759        -1.061605
 C         2.801123        -1.490803        -1.456859
 C         2.121317        -1.376969        -0.080937
 O         1.538979        -2.454233         0.567925
 C         3.262747        -0.499506         0.448795
 O         2.366900         0.355659         1.134366
 H        -0.360556        -0.813423         0.798998
 H        -0.184354         1.032048         0.947855
 H        -0.769151         0.214898        -0.571400
 H         1.582235         0.802350        -2.271427
 H         2.165634         1.863223        -1.078034
 H         4.339764         0.286695        -1.597212
 H         2.183117        -1.755910        -2.350048
 H         3.621846        -2.112346        -1.311831
 H         1.225355        -2.143252         1.430158
 H         4.233172        -0.862199         0.853499
