19
Iteration:   821
 C        -0.062791         0.190505         0.424851
 C         1.403376         0.144111        -0.029287
 C         2.042493         0.727760        -1.212999
 C         3.284745        -0.096085        -1.187865
 C         2.813048        -1.520309        -1.451286
 C         2.137206        -1.385559        -0.121249
 O         1.517804        -2.494966         0.569840
 C         3.249434        -0.474268         0.462440
 O         2.401342         0.477579         1.077501
 H        -0.311192        -0.462801         1.227163
 H        -0.307461         1.159963         0.848643
 H        -0.621374        -0.182954        -0.328689
 H         1.471021         0.473008        -2.139630
 H         2.169298         1.799103        -1.126019
 H         4.312734         0.198371        -1.605222
 H         2.283594        -1.564013        -2.447687
 H         3.666783        -2.129573        -1.292491
 H         2.062379        -3.328961         0.341433
 H         4.087754        -0.874916         0.893045
