19
Iteration:  2817charge 0 multiplicity 1
 C         0.023091         0.145709         0.391152
 C         1.400703         0.021867        -0.012979
 C         2.097259         0.842301        -1.177197
 C         3.365189        -0.150550        -1.114643
 C         2.721106        -1.488458        -1.483901
 C         2.096955        -1.357680        -0.084515
 O         1.587511        -2.481872         0.539747
 C         3.244033        -0.491943         0.418801
 O         2.284554         0.439649         1.021333
 H        -0.190423        -0.506091         1.221981
 H        -0.223145         1.267241         0.566483
 H        -0.569652        -0.088979        -0.451027
 H         1.695455         0.598845        -2.135162
 H         2.372916         1.873134        -0.876309
 H         4.111310         0.244521        -1.744231
 H         2.144265        -1.593192        -2.438725
 H         3.360766        -2.351847        -1.493187
 H         1.927278        -2.301704         1.402708
 H         3.968966        -0.887003         1.066318
