19
Iteration:   324
 C        -0.002083         0.148622         0.450148
 C         1.385398         0.081615         0.002385
 C         2.042340         0.742153        -1.303013
 C         3.414552        -0.016916        -1.087188
 C         2.741167        -1.440047        -1.465673
 C         2.002806        -1.402864        -0.073520
 O         1.660255        -2.578645         0.620863
 C         3.268765        -0.471120         0.398835
 O         2.353673         0.466348         1.043918
 H        -0.212804        -0.546984         1.218207
 H        -0.297446         1.120512         0.734664
 H        -0.573049        -0.014598        -0.544715
 H         1.470604         0.517228        -2.289722
 H         2.130253         1.838703        -1.207843
 H         4.374845         0.423946        -1.421593
 H         2.290426        -1.388653        -2.417652
 H         3.262252        -2.453116        -1.414532
 H         0.927322        -2.796292         0.033334
 H         4.110192        -0.765810         0.958276
