19
Iteration:  4613
 C        -0.049277         0.377537         0.397793
 C         1.440966         0.117460         0.010368
 C         2.083251         0.754465        -1.279161
 C         3.331399        -0.097514        -1.138982
 C         2.817300        -1.529853        -1.475476
 C         2.177573        -1.423860        -0.088624
 O         1.529313        -2.590606         0.492429
 C         3.324467        -0.484344         0.403685
 O         2.300088         0.341409         1.189471
 H        -0.687870        -0.482873         0.646915
 H        -0.192797         1.205650         1.149897
 H        -0.496147         0.814674        -0.525407
 H         1.535468         0.647367        -2.176408
 H         2.171890         1.747921        -1.049142
 H         4.118142         0.336092        -1.723214
 H         2.274131        -1.712150        -2.469932
 H         3.553566        -2.307393        -1.484457
 H         0.725036        -2.340691         0.945292
 H         4.160319        -0.663882         1.163860
