19
Iteration:   974charge 0 multiplicity 1
 C        -0.076171         0.242338         0.489925
 C         1.392629         0.095666        -0.024983
 C         2.073691         0.716904        -1.213825
 C         3.318652        -0.125914        -1.170837
 C         2.822571        -1.479412        -1.489802
 C         2.129951        -1.412005        -0.104665
 O         1.660822        -2.498390         0.552698
 C         3.196623        -0.508619         0.411172
 O         2.370119         0.464694         1.092747
 H        -0.119610        -0.451668         1.359640
 H        -0.505625         1.319583         0.586428
 H        -0.814451        -0.169255        -0.397305
 H         1.354387         0.501870        -1.959924
 H         2.414953         1.718585        -1.076533
 H         4.154652         0.320667        -1.782857
 H         2.331489        -1.681321        -2.456135
 H         3.550346        -2.223411        -1.631161
 H         0.737248        -2.396391         0.819588
 H         4.049545        -0.910996         0.791384
