19
Iteration:  4091
 C         0.032123         0.091455         0.260361
 C         1.440978         0.060174        -0.037566
 C         2.159087         0.799072        -1.225565
 C         3.425058        -0.100642        -1.093304
 C         2.730892        -1.548008        -1.507362
 C         2.118233        -1.366009        -0.083503
 O         1.481439        -2.386009         0.601163
 C         3.214925        -0.510293         0.497608
 O         2.265677         0.494553         1.109234
 H        -0.142494        -0.579807         1.120179
 H        -0.324926         1.125723         0.619431
 H        -0.595168        -0.499483        -0.534310
 H         1.605525         0.825805        -2.157332
 H         2.240873         1.790702        -0.749885
 H         4.327753         0.236128        -1.544147
 H         1.984509        -1.564747        -2.275503
 H         3.510828        -2.381682        -1.576071
 H         1.772763        -3.242238         0.316124
 H         4.140428        -0.710701         1.032192
