19
Iteration:  4479
 C        -0.074152         0.496324         0.456135
 C         1.329355         0.042323        -0.070151
 C         2.078748         0.728592        -1.209726
 C         3.365997        -0.143985        -1.070874
 C         2.848776        -1.539758        -1.429676
 C         2.106651        -1.420383        -0.179089
 O         1.677125        -2.475599         0.514358
 C         3.212077        -0.544546         0.465543
 O         2.297761         0.384649         1.075360
 H         0.000640         0.208738         1.527637
 H        -0.464315         1.451335         0.108272
 H        -0.889123        -0.229508         0.033956
 H         1.686194         0.533294        -2.177550
 H         2.192550         1.730612        -0.965648
 H         4.307642         0.238643        -1.499255
 H         2.211551        -1.736898        -2.371780
 H         3.616216        -2.326497        -1.452753
 H         1.284547        -3.148053        -0.123828
 H         3.983537        -0.852992         1.282019
