19
Iteration:  4234charge 0 multiplicity 1
 C        -0.018403         0.095440         0.220782
 C         1.459262         0.046674         0.004386
 C         2.086350         0.800711        -1.189618
 C         3.314084        -0.070729        -1.121618
 C         2.802375        -1.521018        -1.491714
 C         2.234642        -1.408832        -0.093425
 O         1.390965        -2.280065         0.547149
 C         3.291265        -0.499675         0.471946
 O         2.333771         0.334612         1.159094
 H        -0.382141        -0.030149         1.235304
 H        -0.465242         1.125483         0.079756
 H        -0.450700        -0.641547        -0.521862
 H         1.346391         0.706912        -1.954152
 H         2.427646         1.812199        -0.945061
 H         4.114928         0.358338        -1.677446
 H         2.185771        -1.641026        -2.354652
 H         3.558404        -2.380906        -1.552880
 H         1.871558        -2.917158         1.027016
 H         4.093422        -0.735796         1.098931
