19
Iteration:  4458charge 0 multiplicity 1
 C         0.036280         0.374725         0.398760
 C         1.368886         0.014516        -0.019874
 C         2.087690         0.815464        -1.259349
 C         3.410051        -0.078037        -1.087713
 C         2.834392        -1.472352        -1.477021
 C         2.110934        -1.422085        -0.132419
 O         1.589626        -2.621013         0.640748
 C         3.167947        -0.519126         0.406671
 O         2.263425         0.400031         1.069552
 H        -0.067406         0.026940         1.445475
 H        -0.078079         1.465002         0.236160
 H        -0.843166        -0.117594        -0.166327
 H         1.646067         0.699926        -2.234716
 H         2.278258         1.819573        -1.063732
 H         4.366929         0.298673        -1.459994
 H         2.235481        -1.617220        -2.451272
 H         3.596854        -2.228434        -1.381550
 H         0.801193        -2.822283         0.065903
 H         4.154976        -0.718385         1.043200
