19
Iteration:  4353charge 0 multiplicity 1
 C        -0.061310         0.363790         0.324798
 C         1.384287         0.072745         0.004450
 C         2.096824         0.712941        -1.269811
 C         3.406815        -0.128563        -1.154885
 C         2.848544        -1.474163        -1.437349
 C         2.080889        -1.356080        -0.117778
 O         1.542456        -2.522601         0.539725
 C         3.192274        -0.488224         0.447193
 O         2.271843         0.366267         1.139695
 H        -0.387957        -0.567597         0.798362
 H        -0.165486         1.053314         1.177491
 H        -0.635814         0.556022        -0.607935
 H         1.437073         0.602813        -2.202885
 H         2.219661         1.803816        -0.970658
 H         4.376752         0.116435        -1.477176
 H         2.526226        -1.688262        -2.472222
 H         3.696636        -2.249558        -1.289860
 H         2.349142        -2.858124         1.064454
 H         4.098585        -0.861820         0.890257
