19
Iteration:  1571charge 0 multiplicity 1
 C        -0.007876         0.205273         0.617665
 C         1.419671         0.069035         0.045706
 C         2.024695         0.788903        -1.159002
 C         3.379662        -0.184269        -1.216925
 C         2.647214        -1.524694        -1.531603
 C         2.045232        -1.360017        -0.133954
 O         1.456477        -2.406838         0.538412
 C         3.310891        -0.515977         0.269278
 O         2.517358         0.447421         1.072097
 H        -0.086957        -0.578827         1.338325
 H        -0.094824         1.102515         1.168852
 H        -0.782228         0.175238        -0.197394
 H         1.450390         0.627551        -2.107027
 H         2.209418         1.827909        -1.167725
 H         4.232551         0.159723        -1.752148
 H         2.078765        -1.354854        -2.549558
 H         3.288745        -2.413638        -1.450425
 H         2.032970        -3.089663         0.901491
 H         4.188837        -1.003139         0.692669
