19
Iteration:  2436charge 0 multiplicity 1
 C        -0.051187         0.291444         0.435349
 C         1.394012         0.093739         0.021454
 C         2.077767         0.685327        -1.214917
 C         3.365637        -0.107444        -1.087054
 C         2.792358        -1.542343        -1.509671
 C         2.102084        -1.404746        -0.193871
 O         1.597286        -2.451150         0.557132
 C         3.209345        -0.468826         0.355597
 O         2.342494         0.357375         1.053251
 H        -0.175317        -0.115322         1.508073
 H        -0.392512         1.403678         0.573534
 H        -0.697793        -0.385983        -0.111813
 H         1.484347         0.631378        -2.141999
 H         2.101625         1.798277        -0.945030
 H         4.347790         0.280214        -1.578806
 H         2.150977        -1.586997        -2.454966
 H         3.642662        -2.194082        -1.435597
 H         1.707800        -2.331242         1.484155
 H         4.048242        -0.735383         0.985768
