19
Iteration:  1824charge 0 multiplicity 1
 C         0.065247         0.322268         0.590379
 C         1.387385         0.010283         0.010046
 C         2.023126         0.804510        -1.232212
 C         3.220758        -0.094194        -1.229375
 C         2.713140        -1.472468        -1.563154
 C         2.113610        -1.408484        -0.172492
 O         1.589137        -2.465701         0.641755
 C         3.262344        -0.569142         0.331564
 O         2.456443         0.367107         1.095709
 H         0.083032        -0.383104         1.512598
 H         0.061531         1.454347         0.812000
 H        -0.832321         0.158873        -0.125889
 H         1.455344         0.530100        -2.191275
 H         2.303316         1.854813        -0.842686
 H         4.254592         0.335879        -1.522837
 H         1.907318        -1.615207        -2.325891
 H         3.377055        -2.284593        -1.440503
 H         0.905470        -2.830666         0.087839
 H         4.267185        -0.923055         0.762260
