19
Iteration:  4268
 C        -0.119078         0.079822         0.350357
 C         1.414790         0.094907        -0.034081
 C         2.156439         0.802422        -1.202361
 C         3.383208        -0.075729        -1.045673
 C         2.830964        -1.494867        -1.490391
 C         2.121394        -1.360071        -0.106126
 O         1.406110        -2.409237         0.582713
 C         3.235374        -0.526157         0.490928
 O         2.402383         0.442282         1.026090
 H        -0.253203        -0.210446         1.431752
 H        -0.582970         0.997779        -0.054911
 H        -0.705912        -0.688312        -0.167240
 H         1.805156         0.748219        -2.170540
 H         2.505202         1.815363        -1.036869
 H         4.272321         0.274311        -1.572321
 H         2.320095        -1.402181        -2.410287
 H         3.618465        -2.298009        -1.508694
 H         1.715399        -3.283631         0.521493
 H         4.021469        -0.881978         1.019888
