19
Iteration:  3113
 C        -0.076765         0.307193         0.335873
 C         1.366597         0.047485        -0.019528
 C         2.090434         0.760042        -1.189109
 C         3.416164        -0.104456        -1.156340
 C         2.783696        -1.481858        -1.511931
 C         2.130891        -1.430832        -0.104808
 O         1.646537        -2.576186         0.570901
 C         3.185471        -0.457113         0.435480
 O         2.286587         0.383617         1.119702
 H        -0.371536        -0.297232         1.144632
 H        -0.156981         1.389930         0.624056
 H        -0.673036         0.126974        -0.587034
 H         1.692883         0.731476        -2.213354
 H         2.096134         1.846443        -1.146419
 H         4.325946         0.138929        -1.646666
 H         2.025445        -1.344785        -2.378201
 H         3.482276        -2.289437        -1.598650
 H         1.767631        -2.333473         1.522579
 H         4.057592        -0.747999         1.094559
