19
Iteration:  1252
 C        -0.061639         0.258167         0.516847
 C         1.430706         0.127308         0.027309
 C         1.972150         0.807952        -1.187191
 C         3.333300        -0.142168        -1.218424
 C         2.721544        -1.494675        -1.485267
 C         2.121412        -1.377557        -0.108947
 O         1.516490        -2.510966         0.605904
 C         3.356188        -0.536185         0.369620
 O         2.497793         0.402580         1.046215
 H        -0.259556        -0.448815         1.388305
 H        -0.382043         1.306135         0.774133
 H        -0.690664        -0.127892        -0.417267
 H         1.410680         0.631557        -2.113003
 H         2.105993         1.796667        -0.857541
 H         4.302052         0.167261        -1.769803
 H         2.111555        -1.813154        -2.348749
 H         3.464408        -2.171895        -1.585812
 H         0.766485        -2.899315         0.206570
 H         4.401171        -0.584363         0.668257
