19
Iteration:  1280charge 0 multiplicity 1
 C         0.065333         0.310413         0.579532
 C         1.435820         0.058572         0.022572
 C         2.049294         0.716723        -1.231602
 C         3.293447        -0.162169        -1.191725
 C         2.688404        -1.474496        -1.556180
 C         2.022327        -1.346442        -0.194328
 O         1.652763        -2.445088         0.593158
 C         3.182917        -0.585174         0.410817
 O         2.388923         0.456713         1.089446
 H        -0.091518        -0.247571         1.492231
 H        -0.054846         1.378397         0.461207
 H        -0.660216        -0.059877        -0.092730
 H         1.442924         0.576538        -2.159020
 H         2.350802         1.742168        -0.822917
 H         4.185919         0.161204        -1.614949
 H         2.067488        -1.644451        -2.475108
 H         3.592203        -2.264055        -1.503892
 H         1.422599        -3.275275         0.182085
 H         4.161791        -0.921386         0.886316
