19
Iteration:   913
 C        -0.046865         0.162452         0.415657
 C         1.397151         0.092674         0.038420
 C         2.030052         0.726773        -1.198890
 C         3.367514        -0.115431        -1.113225
 C         2.795742        -1.586482        -1.622670
 C         2.109409        -1.374716        -0.129047
 O         1.548901        -2.419314         0.550839
 C         3.221323        -0.509160         0.430170
 O         2.382256         0.497797         1.104608
 H        -0.455822        -0.453913         1.233597
 H        -0.349409         1.181881         0.552120
 H        -0.509856        -0.212274        -0.408675
 H         1.259684         0.687979        -2.017556
 H         2.219024         1.860933        -1.073737
 H         4.231154         0.324284        -1.515235
 H         2.145115        -1.569947        -2.495891
 H         3.586805        -2.327008        -1.373391
 H         2.286669        -2.771849         1.008109
 H         4.128277        -0.890061         1.097445
