19
Iteration:   652charge 0 multiplicity 1
 C         0.013723         0.214874         0.411378
 C         1.485176         0.004204         0.003298
 C         1.910614         0.679603        -1.192092
 C         3.322967        -0.024699        -1.154873
 C         2.844575        -1.545728        -1.438435
 C         2.186193        -1.408863        -0.105232
 O         1.415604        -2.468910         0.521186
 C         3.279736        -0.387542         0.421231
 O         2.385480         0.432520         1.074621
 H        -0.264178        -0.320414         1.386350
 H        -0.100156         1.299910         0.598677
 H        -0.649153        -0.075497        -0.515278
 H         1.359903         0.697694        -2.170539
 H         1.906843         1.740409        -0.862416
 H         4.121652         0.323393        -1.695400
 H         2.225725        -1.657689        -2.303792
 H         3.767787        -2.252660        -1.451619
 H         1.985677        -3.279531         0.420819
 H         4.242510        -0.439641         1.058828
