19
Iteration:  1213
 C         0.013973         0.207466         0.477337
 C         1.453052         0.025285         0.048738
 C         2.009055         0.781041        -1.194297
 C         3.318097        -0.105729        -1.170623
 C         2.664168        -1.522644        -1.549571
 C         2.079043        -1.411735        -0.147420
 O         1.580009        -2.406575         0.588884
 C         3.362885        -0.512050         0.352946
 O         2.425952         0.384618         1.068569
 H        -0.265056        -0.583141         1.125195
 H        -0.226293         1.201701         0.781390
 H        -0.705970         0.063867        -0.316584
 H         1.246312         0.604517        -2.032295
 H         2.082277         1.888956        -0.949953
 H         4.272084         0.160680        -1.620263
 H         2.010537        -1.441274        -2.421939
 H         3.508542        -2.318925        -1.438729
 H         0.816487        -2.032201         1.118882
 H         4.306159        -0.900609         0.768625
