19
Iteration:  1285charge 0 multiplicity 1
 C         0.086195         0.338281         0.557393
 C         1.400354         0.087794         0.013721
 C         2.005332         0.727256        -1.208931
 C         3.328661        -0.179170        -1.204749
 C         2.710323        -1.479057        -1.585620
 C         2.027469        -1.391142        -0.169130
 O         1.653172        -2.438848         0.604464
 C         3.217973        -0.583127         0.404829
 O         2.368833         0.412537         1.105400
 H         0.010288        -0.192391         1.528045
 H        -0.110427         1.438984         0.565448
 H        -0.774013        -0.081165        -0.098652
 H         1.577685         0.706840        -2.206063
 H         2.226467         1.729896        -0.976412
 H         4.320825         0.050113        -1.774032
 H         1.964486        -1.584102        -2.380347
 H         3.446537        -2.153071        -1.434475
 H         1.494636        -3.247101         0.077952
 H         4.111099        -0.660783         0.995292
