19
Iteration:  2160charge 0 multiplicity 1
 C        -0.015212         0.293052         0.487023
 C         1.406770         0.076418         0.064508
 C         2.013014         0.713016        -1.190516
 C         3.282655        -0.156581        -1.203548
 C         2.846101        -1.552924        -1.510774
 C         2.095668        -1.391162        -0.106810
 O         1.459663        -2.419888         0.499611
 C         3.271597        -0.504022         0.351666
 O         2.456621         0.416278         1.081256
 H        -0.186205        -0.480654         1.254853
 H        -0.088749         1.162891         1.090435
 H        -0.635071         0.395816        -0.422254
 H         1.278605         0.445741        -1.988760
 H         1.981442         1.742535        -0.993723
 H         4.110473         0.344862        -1.520899
 H         2.176873        -1.734642        -2.329513
 H         3.576835        -2.321315        -1.703742
 H         2.032712        -2.898093         1.096057
 H         4.217825        -0.497405         0.860531
