19
Iteration:  2493
 C        -0.088118         0.184983         0.322570
 C         1.407889         0.019842         0.112661
 C         2.032872         0.721312        -1.228309
 C         3.357696        -0.129377        -1.146876
 C         2.718690        -1.530935        -1.487166
 C         2.135769        -1.343134        -0.095391
 O         1.559456        -2.419913         0.582940
 C         3.329085        -0.451093         0.427882
 O         2.411371         0.447215         1.092643
 H        -0.252736        -0.011561         1.354206
 H        -0.207901         1.310944         0.193989
 H        -0.847098        -0.262681        -0.395951
 H         1.338422         0.498959        -2.037313
 H         2.092268         1.791155        -1.016569
 H         4.183576         0.287687        -1.606217
 H         2.068222        -1.453998        -2.385746
 H         3.347679        -2.376010        -1.624980
 H         1.786049        -3.272902         0.083348
 H         4.170427        -0.768683         1.110041
