19
Iteration:   688charge 0 multiplicity 1
 C        -0.082743         0.175279         0.400824
 C         1.363229         0.054569         0.039829
 C         2.005568         0.767713        -1.222478
 C         3.367051        -0.022075        -1.147217
 C         2.812292        -1.549193        -1.442912
 C         2.089553        -1.351640        -0.145779
 O         1.596702        -2.371345         0.592862
 C         3.240165        -0.515088         0.441112
 O         2.403478         0.383542         1.044833
 H        -0.320876        -0.509398         1.275212
 H        -0.354316         1.282998         0.758207
 H        -0.758603        -0.142227        -0.420226
 H         1.513290         0.514387        -2.280973
 H         2.101997         1.852716        -0.979098
 H         4.355245         0.237728        -1.626528
 H         2.211020        -1.635560        -2.412852
 H         3.598520        -2.393679        -1.409062
 H         1.902380        -3.247926         0.204533
 H         4.141255        -1.024558         0.952433
