19
Iteration:  1650charge 0 multiplicity 1
 C         0.024060         0.352262         0.452918
 C         1.479768         0.168720         0.126623
 C         1.983842         0.827583        -1.149425
 C         3.270226        -0.160732        -1.244718
 C         2.561484        -1.457715        -1.519040
 C         2.038176        -1.399983        -0.159777
 O         1.667497        -2.689880         0.535009
 C         3.296959        -0.560638         0.358169
 O         2.508046         0.427924         1.075895
 H        -0.081706        -0.116609         1.468937
 H         0.007064         1.415065         0.743952
 H        -0.733819        -0.037111        -0.159675
 H         1.485126         0.872458        -2.095326
 H         2.300121         1.878706        -0.929042
 H         4.171945         0.149634        -1.692429
 H         1.705336        -1.511985        -2.313021
 H         3.168680        -2.364971        -1.843627
 H         1.009578        -2.547555         1.210260
 H         4.249392        -0.952996         0.795521
