19
Iteration:  1231charge 0 multiplicity 1
 C         0.086304         0.184038         0.423195
 C         1.463601         0.005415         0.113496
 C         1.972809         0.779152        -1.145904
 C         3.256031        -0.095105        -1.284187
 C         2.721142        -1.555189        -1.525962
 C         2.167150        -1.362706        -0.074445
 O         1.518758        -2.446641         0.576665
 C         3.272045        -0.482846         0.328006
 O         2.467756         0.427869         1.130336
 H        -0.244403        -0.538624         1.229068
 H         0.024671         1.255080         0.766630
 H        -0.668285         0.077576        -0.508850
 H         1.437780         0.563582        -2.111501
 H         2.290996         1.771437        -0.957973
 H         4.105518         0.387117        -1.913387
 H         1.981145        -1.732799        -2.335045
 H         3.385112        -2.374748        -1.627028
 H         0.536425        -2.226450         0.465986
 H         4.042356        -0.721739         1.016323
