19
Iteration:  1751
 C         0.028724         0.230748         0.538664
 C         1.448869         0.086201         0.114107
 C         2.109752         0.799148        -1.171093
 C         3.302887        -0.182629        -1.249395
 C         2.548029        -1.496726        -1.547271
 C         2.135464        -1.456582        -0.083408
 O         1.506677        -2.454456         0.522085
 C         3.290946        -0.526598         0.316243
 O         2.437553         0.489789         1.084629
 H        -0.248908        -0.591407         1.203975
 H         0.010229         1.263089         0.958286
 H        -0.688261         0.077883        -0.246869
 H         1.386026         0.728704        -1.907730
 H         2.413164         1.791297        -0.761916
 H         4.125273         0.267799        -1.914650
 H         1.872851        -1.297864        -2.440601
 H         3.257208        -2.414070        -1.842503
 H         2.029590        -3.211035         0.913603
 H         4.292019        -0.784032         0.657763
