19
Iteration:   661
 C        -0.042558         0.252903         0.376225
 C         1.358999         0.040438         0.090024
 C         1.964432         0.703465        -1.182344
 C         3.280524        -0.040528        -1.218867
 C         2.953402        -1.570669        -1.490519
 C         2.121299        -1.424096        -0.086748
 O         1.439462        -2.460155         0.548410
 C         3.306076        -0.371093         0.401321
 O         2.420580         0.428595         1.112291
 H        -0.246318        -0.423472         1.210904
 H        -0.295215         1.193387         0.698966
 H        -0.679217        -0.205852        -0.393040
 H         1.420109         0.489242        -2.018452
 H         2.222834         1.726767        -0.939825
 H         4.153217         0.374417        -1.702983
 H         2.442742        -1.631710        -2.423936
 H         3.749388        -2.309007        -1.386906
 H         1.830907        -3.336588         0.301838
 H         4.263570        -0.615820         0.758449
