19
Iteration:  5000
 C         0.017699         0.404750         0.424565
 C         1.481548         0.094347         0.081907
 C         2.129523         0.778386        -1.053341
 C         3.323266        -0.137838        -1.170799
 C         2.689771        -1.487411        -1.549275
 C         2.057384        -1.288092        -0.178288
 O         1.549081        -2.524453         0.425783
 C         3.240918        -0.571218         0.352795
 O         2.392378         0.243745         1.139162
 H        -0.240351         0.496610         1.493636
 H        -0.472442         1.354257         0.089171
 H        -0.683698        -0.431443        -0.076860
 H         1.445291         0.634774        -2.013183
 H         2.448049         1.777451        -0.673278
 H         4.233325         0.320353        -1.629609
 H         2.067307        -1.758533        -2.402000
 H         3.424131        -2.286514        -1.499607
 H         1.153368        -2.398345         1.367582
 H         4.219288        -0.905479         0.749025
