19
Iteration:  4532charge 0 multiplicity 1
 C        -0.044603         0.196208         0.277938
 C         1.460910        -0.030885         0.020107
 C         2.093721         0.800690        -1.144586
 C         3.337916        -0.081638        -1.171339
 C         2.746957        -1.538555        -1.448445
 C         2.164908        -1.380279        -0.057843
 O         1.454947        -2.369751         0.538799
 C         3.346147        -0.573970         0.452367
 O         2.359792         0.426333         1.104367
 H        -0.424295         0.130927         1.316589
 H        -0.223062         1.221487        -0.029083
 H        -0.717200        -0.439294        -0.337432
 H         1.426509         0.711588        -2.034745
 H         2.139188         1.902258        -0.862658
 H         4.306763         0.323910        -1.544900
 H         1.932552        -1.423443        -2.161484
 H         3.549697        -2.324241        -1.540599
 H         1.566270        -3.153719        -0.048136
 H         4.073050        -0.717733         1.159819
