19
Iteration:  1677
 C         0.005146         0.326490         0.542768
 C         1.444536         0.050770         0.112493
 C         2.010908         0.771585        -1.115242
 C         3.265568        -0.167024        -1.257487
 C         2.607565        -1.485031        -1.520525
 C         2.146965        -1.377294        -0.129881
 O         1.563284        -2.530396         0.479693
 C         3.383787        -0.518969         0.318665
 O         2.462979         0.389137         1.062342
 H        -0.132830        -0.068403         1.563384
 H        -0.057870         1.429918         0.617645
 H        -0.850066        -0.152936        -0.029440
 H         1.436718         0.674415        -2.088164
 H         2.213774         1.827115        -0.798874
 H         4.213109         0.155244        -1.782125
 H         1.785588        -1.535218        -2.185934
 H         3.312242        -2.220192        -1.848535
 H         0.920097        -2.261869         1.143630
 H         4.308623        -0.965868         0.661858
