19
Iteration:  3838
 C        -0.074049         0.254125         0.272921
 C         1.384395        -0.046498         0.022708
 C         2.069379         0.732785        -1.174381
 C         3.329798        -0.077197        -1.146499
 C         2.964916        -1.526968        -1.501191
 C         2.153173        -1.419960        -0.157931
 O         1.467179        -2.379524         0.542167
 C         3.158333        -0.499967         0.505188
 O         2.364554         0.428914         1.162046
 H        -0.355636         0.023529         1.307975
 H        -0.292266         1.323708         0.185735
 H        -0.763172        -0.281254        -0.389990
 H         1.480195         0.435856        -2.046414
 H         2.384104         1.753950        -1.032203
 H         4.024682         0.613620        -1.676653
 H         2.315934        -1.648099        -2.434606
 H         3.759416        -2.299359        -1.535263
 H         2.088321        -2.959846         1.050687
 H         4.148199        -0.911092         0.798672
