19
Iteration:  1183
 C        -0.014061         0.297030         0.491111
 C         1.404828         0.079518        -0.019026
 C         2.042889         0.825763        -1.191233
 C         3.333756        -0.091567        -1.230451
 C         2.740343        -1.556369        -1.527322
 C         2.075114        -1.410024        -0.138505
 O         1.570431        -2.522536         0.596929
 C         3.256546        -0.539272         0.326737
 O         2.392920         0.435239         1.102005
 H        -0.170843        -0.488110         1.309034
 H        -0.335675         1.323528         0.854679
 H        -0.758256        -0.003467        -0.219855
 H         1.333608         0.794970        -1.960368
 H         2.305514         1.846445        -0.837674
 H         4.292694         0.117547        -1.616345
 H         2.138318        -1.679890        -2.487517
 H         3.369196        -2.460099        -1.742624
 H         2.111937        -2.533643         1.416851
 H         4.160156        -0.945858         0.900423
