19
Iteration:   363
 C        -0.040779         0.195334         0.391981
 C         1.430710        -0.014951         0.063028
 C         1.974738         0.785499        -1.184525
 C         3.258768        -0.071105        -1.269715
 C         2.885548        -1.597298        -1.448050
 C         2.179701        -1.328483        -0.081806
 O         1.486754        -2.477304         0.574235
 C         3.292258        -0.400100         0.395828
 O         2.368385         0.415486         1.101201
 H        -0.438466        -0.501466         1.182345
 H        -0.286129         1.285982         0.645308
 H        -0.584141         0.026186        -0.529877
 H         1.462610         0.975067        -2.088809
 H         2.196462         1.761015        -0.711589
 H         4.187147         0.478524        -1.757695
 H         2.257551        -1.782030        -2.419317
 H         3.717743        -2.237133        -1.234384
 H         1.662248        -3.399433         0.206604
 H         4.302825        -0.608582         0.844886
