19
Iteration:  2332
 C        -0.030006         0.276973         0.516124
 C         1.403271        -0.039848        -0.015607
 C         2.127720         0.765488        -1.214412
 C         3.366522        -0.117402        -1.186184
 C         2.726684        -1.490878        -1.550297
 C         2.109734        -1.418467        -0.110191
 O         1.509658        -2.490745         0.604073
 C         3.227419        -0.407873         0.364366
 O         2.348562         0.405640         1.051252
 H        -0.270455        -0.433358         1.277945
 H        -0.046531         1.259334         0.853901
 H        -0.797533         0.188015        -0.302977
 H         1.656089         0.803602        -2.203487
 H         2.227251         1.812076        -1.075173
 H         4.226237         0.274917        -1.569216
 H         2.075395        -1.557310        -2.393736
 H         3.509824        -2.291722        -1.388052
 H         2.304475        -2.905845         1.018465
 H         4.135228        -0.771143         0.989051
