19
Iteration:  3897charge 0 multiplicity 1
 C        -0.104301         0.225098         0.358325
 C         1.425096         0.029187        -0.002617
 C         2.155293         0.759275        -1.149953
 C         3.447406        -0.182759        -1.135163
 C         2.831365        -1.525647        -1.496959
 C         2.086930        -1.397041        -0.142574
 O         1.559087        -2.514413         0.505096
 C         3.185978        -0.452137         0.488512
 O         2.265168         0.510252         1.073007
 H        -0.423529        -0.621707         0.936031
 H        -0.349300         1.183616         0.794650
 H        -0.657353         0.086183        -0.563967
 H         1.469544         0.944664        -2.035039
 H         2.423699         1.901056        -1.068976
 H         4.236543         0.250443        -1.694611
 H         2.147381        -1.628955        -2.313164
 H         3.489026        -2.462243        -1.342461
 H         1.988731        -2.511206         1.316763
 H         4.085393        -0.713369         1.023723
