19
Iteration:   618charge 0 multiplicity 1
 C        -0.075035         0.168985         0.502334
 C         1.354864         0.125209        -0.019766
 C         2.068554         0.733585        -1.260704
 C         3.429420        -0.128542        -1.129525
 C         2.791980        -1.493556        -1.515901
 C         2.093332        -1.411598        -0.161356
 O         1.531497        -2.484919         0.553785
 C         3.241766        -0.444757         0.419191
 O         2.370141         0.463179         1.076447
 H        -0.255018        -0.480492         1.406305
 H        -0.429131         1.155981         0.709035
 H        -0.801220        -0.254711        -0.300365
 H         1.470994         0.604636        -2.196110
 H         2.219987         1.762974        -0.874162
 H         4.297854         0.330725        -1.580757
 H         2.151376        -1.565071        -2.368129
 H         3.559092        -2.328300        -1.567951
 H         2.361819        -2.955446         0.924476
 H         4.070390        -0.675127         1.089566
