19
Iteration:  2215
 C        -0.086544         0.244861         0.488067
 C         1.370942         0.091984         0.069732
 C         2.134275         0.808332        -1.268609
 C         3.305942        -0.165077        -1.189037
 C         2.717551        -1.551143        -1.522772
 C         2.088899        -1.403753        -0.167554
 O         1.604350        -2.387314         0.607854
 C         3.297551        -0.539896         0.374787
 O         2.419657         0.430762         1.107129
 H        -0.299919        -0.612111         1.200153
 H        -0.311451         1.203031         0.911598
 H        -0.801837        -0.005740        -0.322396
 H         1.460731         0.765738        -2.140046
 H         2.224275         1.828787        -1.092771
 H         4.142703         0.261512        -1.562397
 H         1.997703        -1.549221        -2.304107
 H         3.426926        -2.353397        -1.409683
 H         1.737986        -3.227753         0.228792
 H         4.035401        -0.987588         0.979225
