19
Iteration:  2555charge 0 multiplicity 1
 C        -0.074665         0.180567         0.372646
 C         1.437288        -0.009409         0.029299
 C         2.026706         0.699014        -1.225812
 C         3.291795        -0.073222        -1.169307
 C         2.842843        -1.529122        -1.478931
 C         2.106469        -1.353247        -0.140044
 O         1.565690        -2.415026         0.595346
 C         3.343656        -0.469674         0.448060
 O         2.349482         0.404856         1.066675
 H        -0.464122        -0.610573         1.105012
 H         0.040542         1.130316         1.015236
 H        -0.847399         0.247724        -0.328169
 H         1.539589         0.544942        -2.203991
 H         2.369527         1.771764        -1.035715
 H         4.010904         0.360569        -1.994141
 H         2.507702        -1.641895        -2.560288
 H         3.702158        -2.221058        -1.357754
 H         0.667282        -2.163428         0.931703
 H         4.080392        -0.762577         1.145887
