19
Iteration:  1740
 C         0.042157         0.198618         0.574887
 C         1.457648         0.047954         0.080670
 C         2.048731         0.746833        -1.153343
 C         3.257811        -0.179580        -1.245227
 C         2.643879        -1.488258        -1.628819
 C         2.122696        -1.378338        -0.151160
 O         1.430411        -2.449840         0.534308
 C         3.314040        -0.491162         0.302213
 O         2.474586         0.466275         1.126403
 H        -0.135574        -0.409180         1.472990
 H        -0.085967         1.233522         0.998155
 H        -0.659168         0.086861        -0.228917
 H         1.613900         0.868511        -2.092783
 H         2.364349         1.803918        -0.964189
 H         4.296047        -0.015211        -1.711479
 H         1.717446        -1.604752        -2.249900
 H         3.447020        -2.314480        -1.912751
 H         2.175387        -2.780320         1.090654
 H         4.072899        -0.768368         1.012318
