19
Iteration:  3260charge 0 multiplicity 1
 C        -0.046670         0.318056         0.263116
 C         1.404550         0.063860         0.090494
 C         2.044335         0.700688        -1.212036
 C         3.393149        -0.090886        -1.115196
 C         2.793599        -1.462471        -1.490714
 C         2.099052        -1.422124        -0.100732
 O         1.539493        -2.544668         0.578073
 C         3.288292        -0.438965         0.384043
 O         2.307923         0.380293         1.137266
 H        -0.324718        -0.097203         1.293219
 H        -0.072173         1.374881         0.308161
 H        -0.681793        -0.089180        -0.463353
 H         1.353794         0.616021        -2.123822
 H         2.025242         1.823394        -1.003624
 H         4.218819         0.643337        -1.481874
 H         2.235063        -1.592170        -2.473154
 H         3.456047        -2.425534        -1.425020
 H         2.216903        -3.183635         0.576857
 H         4.228502        -0.626645         0.865871
