19
Iteration:  2474charge 0 multiplicity 1
 C        -0.015078         0.337260         0.323559
 C         1.410248         0.049147         0.069294
 C         1.990889         0.721354        -1.133471
 C         3.301917        -0.055580        -1.187451
 C         2.757985        -1.520307        -1.457481
 C         2.161565        -1.477230        -0.085738
 O         1.478758        -2.505342         0.565090
 C         3.308431        -0.437847         0.357367
 O         2.388861         0.411198         1.114550
 H        -0.385687         0.069545         1.305254
 H        -0.398064         1.265234        -0.009903
 H        -0.439572        -0.494339        -0.372936
 H         1.457630         0.686626        -2.109723
 H         2.182106         1.780705        -0.945185
 H         4.153855         0.250645        -1.720177
 H         2.156526        -1.796144        -2.316265
 H         3.718488        -2.159871        -1.389909
 H         2.238093        -3.103248         0.656406
 H         4.370762        -0.558654         0.742750
