19
Iteration:  4884charge 0 multiplicity 1
 C         0.031523         0.141047         0.470622
 C         1.402607         0.085778         0.010993
 C         2.094228         0.772050        -1.222767
 C         3.418797        -0.139984        -1.099065
 C         2.748028        -1.494160        -1.564348
 C         2.103903        -1.377049        -0.162511
 O         1.359850        -2.289837         0.568870
 C         3.324598        -0.568950         0.469295
 O         2.436116         0.368115         1.095235
 H        -0.356644        -0.819500         0.853130
 H        -0.117135         0.864287         1.289800
 H        -0.624737         0.448378        -0.333858
 H         1.385983         0.878202        -2.134874
 H         2.326172         1.799470        -0.770519
 H         4.133085         0.230647        -1.773413
 H         2.046541        -1.515204        -2.527533
 H         3.453979        -2.424161        -1.533665
 H         1.156308        -3.038625        -0.106225
 H         4.312682        -0.859766         0.931743
