19
Iteration:  4972charge 0 multiplicity 1
 C        -0.048735         0.503948         0.426608
 C         1.434437         0.070926        -0.022439
 C         2.096936         0.797765        -1.130117
 C         3.287459        -0.094367        -1.099514
 C         2.754815        -1.424703        -1.606624
 C         2.121994        -1.459175        -0.174367
 O         1.508742        -2.571944         0.516699
 C         3.158602        -0.643451         0.387883
 O         2.447867         0.277366         1.152670
 H        -0.111690         0.476315         1.550672
 H        -0.131810         1.510689         0.007811
 H        -0.828671        -0.097706         0.099773
 H         1.603884         0.678263        -2.015540
 H         2.355642         1.772456        -0.729306
 H         4.182350         0.279252        -1.545757
 H         1.905628        -1.362653        -2.364561
 H         3.697339        -2.062152        -1.737532
 H         2.129742        -2.664429         1.336292
 H         4.155275        -1.006474         0.648492
