19
Iteration:  1032
 C        -0.098558         0.260256         0.368016
 C         1.425970         0.025366         0.096008
 C         1.987995         0.828670        -1.188572
 C         3.334505        -0.104855        -1.302778
 C         2.794833        -1.564052        -1.559310
 C         2.139512        -1.430573        -0.043618
 O         1.534287        -2.446629         0.625537
 C         3.297933        -0.468496         0.467084
 O         2.409960         0.403923         1.109322
 H        -0.629628        -0.426465         1.164048
 H        -0.325430         1.349092         0.700341
 H        -0.568602         0.026229        -0.572607
 H         1.241325         0.729095        -2.022271
 H         2.196283         1.948367        -1.122861
 H         4.192921         0.268981        -1.808032
 H         2.131087        -1.535180        -2.493590
 H         3.589881        -2.289476        -1.505773
 H         2.096668        -3.241166         0.391431
 H         4.315668        -0.865638         0.819963
