19
Iteration:  2311charge 0 multiplicity 1
 C        -0.032377         0.309558         0.465528
 C         1.368539         0.062846         0.019606
 C         2.004622         0.780371        -1.192116
 C         3.311859        -0.121646        -1.179889
 C         2.781058        -1.570001        -1.511674
 C         2.133394        -1.405095        -0.102952
 O         1.561758        -2.508045         0.516454
 C         3.327557        -0.544534         0.404305
 O         2.365767         0.447046         1.027097
 H        -0.036709        -0.292267         1.390593
 H        -0.210657         1.323510         0.712743
 H        -0.833026        -0.124338        -0.208608
 H         1.475623         0.915929        -2.163144
 H         2.155956         1.801089        -0.877348
 H         4.180712         0.160023        -1.616995
 H         2.116924        -1.533983        -2.327612
 H         3.683290        -2.230092        -1.620193
 H         1.632019        -2.438225         1.472234
 H         4.192961        -0.912545         1.039498
