19
Iteration:   514charge 0 multiplicity 1
 C        -0.063832         0.225622         0.518847
 C         1.342910         0.093338         0.021850
 C         2.117026         0.806445        -1.154316
 C         3.289217        -0.134360        -1.176773
 C         2.874470        -1.586218        -1.499825
 C         2.155677        -1.402476        -0.140152
 O         1.574476        -2.540296         0.517758
 C         3.190104        -0.430961         0.310401
 O         2.304192         0.452935         1.035586
 H        -0.085673        -0.482552         1.366549
 H        -0.510885         1.214568         0.805866
 H        -0.674439        -0.075997        -0.298652
 H         1.668861         0.952468        -2.202864
 H         2.407329         1.952715        -0.847504
 H         4.245240         0.273920        -1.578083
 H         2.352469        -1.891679        -2.435828
 H         3.619435        -2.356013        -1.298623
 H         1.867550        -2.424264         1.492124
 H         4.112616        -0.789282         0.914124
