19
Iteration:  1097
 C        -0.029842         0.186668         0.542319
 C         1.364306         0.059862        -0.063342
 C         2.073195         0.801326        -1.196989
 C         3.346378        -0.115046        -1.198702
 C         2.737652        -1.567050        -1.510161
 C         2.094024        -1.342555        -0.158332
 O         1.602163        -2.492015         0.569423
 C         3.301816        -0.466376         0.405569
 O         2.391287         0.399775         1.082304
 H        -0.059201        -0.604047         1.439786
 H        -0.206270         1.337988         0.600175
 H        -0.808778        -0.128774        -0.174911
 H         1.472822         0.724786        -2.086006
 H         2.248593         1.886641        -1.026542
 H         4.182640         0.193900        -1.780040
 H         2.067159        -1.622209        -2.424648
 H         3.572261        -2.224910        -1.344070
 H         0.645402        -2.355116         0.869305
 H         4.280908        -0.583420         0.993418
