19
Iteration:  4135
 C        -0.033088         0.210701         0.272912
 C         1.404889         0.000181        -0.007555
 C         1.939508         0.720144        -1.167505
 C         3.341046        -0.099317        -1.104781
 C         2.922281        -1.560025        -1.381159
 C         2.139060        -1.406054        -0.147513
 O         1.500720        -2.375584         0.542645
 C         3.260360        -0.490367         0.484955
 O         2.380974         0.483784         1.070448
 H        -0.716932        -0.501997         0.734659
 H         0.095748         1.084592         1.001972
 H        -0.746905         0.460152        -0.642961
 H         1.485063         0.602201        -2.138042
 H         2.116793         1.800822        -1.125241
 H         4.258416         0.289976        -1.476619
 H         2.383592        -1.628066        -2.277368
 H         3.769869        -2.262891        -1.091928
 H         1.539425        -3.188469         0.065117
 H         3.953343        -1.049600         1.093059
