19
Iteration:  3783charge 0 multiplicity 1
 C        -0.061256         0.126754         0.294162
 C         1.415700         0.032692         0.004538
 C         2.076285         0.829719        -1.235850
 C         3.383072        -0.177184        -1.105500
 C         2.804277        -1.534552        -1.469844
 C         2.194304        -1.398231        -0.039018
 O         1.477383        -2.378933         0.522541
 C         3.234993        -0.508214         0.577539
 O         2.352327         0.539804         1.053714
 H        -0.253196        -0.716291         1.026540
 H        -0.496915         1.052705         0.598403
 H        -0.578905        -0.454087        -0.446321
 H         1.449192         0.627404        -2.163420
 H         2.152523         1.953311        -0.984908
 H         4.318443         0.290330        -1.574843
 H         2.129647        -1.497812        -2.424887
 H         3.535310        -2.347247        -1.521719
 H         1.709562        -3.182121         0.152690
 H         4.124241        -0.904542         1.152212
