19
Iteration:   837charge 0 multiplicity 1
 C        -0.078328         0.198743         0.356633
 C         1.401982         0.035224         0.059025
 C         1.961131         0.770749        -1.289272
 C         3.360111        -0.035124        -1.098940
 C         2.823368        -1.545340        -1.469784
 C         2.057001        -1.388829        -0.050356
 O         1.533251        -2.450608         0.573542
 C         3.261674        -0.462969         0.353616
 O         2.503776         0.442211         1.151467
 H        -0.399048        -0.599713         1.098575
 H        -0.359346         1.244583         0.611418
 H        -0.814148        -0.057593        -0.592258
 H         1.473347         0.467205        -2.244265
 H         1.990504         1.907315        -1.364889
 H         4.186111         0.409389        -1.533379
 H         2.118544        -1.884121        -2.247961
 H         3.602990        -2.382356        -1.301697
 H         1.845996        -3.234745         0.051490
 H         4.257516        -0.762179         0.942890
