19
Iteration:  3102
 C         0.021417         0.320124         0.317193
 C         1.345893        -0.018475        -0.083749
 C         2.103219         0.742287        -1.224772
 C         3.348548        -0.095189        -1.100916
 C         2.748087        -1.406848        -1.477019
 C         2.077390        -1.361814        -0.087262
 O         1.714798        -2.585015         0.570774
 C         3.232993        -0.526222         0.389554
 O         2.251117         0.406871         1.116777
 H        -0.242986        -0.166908         1.198338
 H         0.009132         1.426144         0.553453
 H        -0.786305         0.132169        -0.431332
 H         1.607229         0.489586        -2.154602
 H         2.307813         1.637355        -0.676252
 H         4.206748         0.343734        -1.536780
 H         2.102584        -1.604552        -2.449930
 H         3.389236        -2.256512        -1.427820
 H         1.279973        -2.408373         1.373002
 H         4.078100        -0.760475         1.090406
