19
Iteration:   527charge 0 multiplicity 1
 C        -0.145836         0.159184         0.436397
 C         1.375620         0.111544        -0.007116
 C         2.052577         0.849124        -1.187467
 C         3.370492        -0.076134        -1.199020
 C         2.793046        -1.585764        -1.411154
 C         2.034182        -1.392910        -0.139520
 O         1.595957        -2.544281         0.514953
 C         3.269406        -0.506206         0.370912
 O         2.406017         0.481031         1.063304
 H        -0.331051        -0.479890         1.304883
 H        -0.249696         1.207562         0.808935
 H        -0.926775        -0.136998        -0.333176
 H         1.424773         0.807620        -2.135777
 H         2.486568         1.977779        -0.839711
 H         4.415245         0.351091        -1.656731
 H         2.182766        -1.907479        -2.324686
 H         3.658816        -2.194401        -1.285630
 H         2.051974        -2.699475         1.307941
 H         4.192533        -0.785071         0.878172
