19
Iteration:   714charge 0 multiplicity 1
 C         0.002137         0.119547         0.366224
 C         1.418328         0.000512         0.067596
 C         2.121387         0.786908        -1.222390
 C         3.338781        -0.050831        -1.187242
 C         2.705303        -1.476232        -1.568324
 C         2.168472        -1.446199        -0.098074
 O         1.524739        -2.476590         0.668256
 C         3.278107        -0.429496         0.454843
 O         2.262699         0.467119         1.068930
 H        -0.163943        -0.399563         1.283543
 H        -0.116926         1.208620         0.577416
 H        -0.741553         0.016735        -0.406267
 H         1.660646         0.816956        -2.235495
 H         2.262515         1.872034        -0.889005
 H         4.366202        -0.013020        -1.638995
 H         1.995404        -1.479327        -2.442766
 H         3.487916        -2.117130        -1.850532
 H         2.009208        -3.350153         0.514964
 H         4.178505        -0.617099         0.889161
