19
Iteration:  1016
 C        -0.032777         0.260016         0.368349
 C         1.387151         0.039378        -0.010474
 C         2.039941         0.710032        -1.160319
 C         3.250531        -0.080397        -1.224000
 C         2.753041        -1.477901        -1.516898
 C         2.189423        -1.390365        -0.132396
 O         1.577724        -2.469125         0.669963
 C         3.285920        -0.499099         0.433177
 O         2.386564         0.422232         1.091525
 H        -0.232438        -0.295984         1.231580
 H        -0.128891         1.280336         0.670208
 H        -0.778966         0.041267        -0.463535
 H         1.555254         0.695098        -2.114534
 H         2.236333         1.674256        -0.777064
 H         4.146391         0.343771        -1.775214
 H         2.069724        -1.753334        -2.245738
 H         3.618033        -2.163170        -1.671253
 H         1.472597        -3.322488         0.122217
 H         4.070791        -0.652346         1.097336
