19
Iteration:  4254
 C        -0.033883         0.049312         0.270345
 C         1.407898        -0.032129         0.001463
 C         2.178464         0.786937        -1.166819
 C         3.473081        -0.085504        -1.121744
 C         2.790584        -1.421257        -1.500586
 C         2.041567        -1.404252        -0.135291
 O         1.335427        -2.348241         0.622760
 C         3.298947        -0.466010         0.393303
 O         2.355958         0.439270         1.116318
 H        -0.162006        -0.048603         1.326835
 H        -0.459617         1.079623         0.091681
 H        -0.472895        -0.877692        -0.255974
 H         1.606167         0.771197        -2.184634
 H         2.036584         1.827699        -0.767247
 H         4.433173         0.271682        -1.369342
 H         2.192446        -1.626037        -2.469460
 H         3.565891        -2.289675        -1.311997
 H         2.016910        -3.091280         0.576146
 H         4.226684        -0.755268         0.993506
