19
Iteration:   211charge 0 multiplicity 1
 C         0.017299         0.164296         0.425306
 C         1.453352         0.032142        -0.046176
 C         2.047183         0.841816        -1.180030
 C         3.344028        -0.060375        -1.266759
 C         2.846706        -1.552798        -1.374247
 C         2.122185        -1.406485        -0.093349
 O         1.516440        -2.566522         0.465436
 C         3.233202        -0.403000         0.426327
 O         2.265937         0.430857         1.082364
 H        -0.186043        -0.435863         1.340764
 H        -0.207062         1.234075         0.664283
 H        -0.749137        -0.226352        -0.215994
 H         1.503840         0.868005        -2.111476
 H         2.312570         1.859966        -0.924846
 H         4.446198         0.310571        -1.716440
 H         2.250548        -1.703744        -2.347319
 H         3.591288        -2.323149        -1.428610
 H         1.579947        -2.457119         1.489311
 H         4.101509        -0.512510         1.123872
