19
Iteration:  1921charge 0 multiplicity 1
 C        -0.101293         0.240473         0.472981
 C         1.446939         0.066928         0.032478
 C         1.994963         0.841476        -1.127581
 C         3.366391        -0.153317        -1.234391
 C         2.671678        -1.459609        -1.574698
 C         2.029957        -1.326207        -0.117877
 O         1.577510        -2.412657         0.631945
 C         3.279205        -0.583601         0.327466
 O         2.486114         0.321511         1.061545
 H        -0.151805        -0.293101         1.441786
 H        -0.396031         1.279545         0.659419
 H        -0.905249         0.057259        -0.296663
 H         1.492809         0.606395        -2.121795
 H         2.437637         1.811551        -0.823615
 H         4.306474         0.166189        -1.789186
 H         1.945087        -1.659636        -2.385689
 H         3.385630        -2.253575        -1.574029
 H         2.309435        -2.956652         0.985784
 H         4.237171        -0.976426         0.807827
