19
Iteration:   647charge 0 multiplicity 1
 C         0.040082         0.191600         0.429812
 C         1.471182        -0.040537        -0.004938
 C         1.931166         0.711591        -1.217493
 C         3.323069        -0.047135        -1.126775
 C         2.804458        -1.506292        -1.421357
 C         2.208735        -1.415474        -0.096389
 O         1.422930        -2.460567         0.503554
 C         3.312827        -0.417128         0.431174
 O         2.352434         0.452809         1.057201
 H        -0.269388        -0.269363         1.323527
 H        -0.031143         1.290656         0.475449
 H        -0.596186         0.026375        -0.378376
 H         1.326783         0.665043        -2.129100
 H         1.836367         1.774951        -0.967810
 H         4.219759         0.408445        -1.701005
 H         2.125320        -1.777455        -2.278603
 H         3.634203        -2.146125        -1.467696
 H         2.022528        -3.242464         0.507291
 H         4.158285        -0.490518         1.057329
