19
Iteration:  1687
 C         0.015601         0.288790         0.579849
 C         1.428981         0.060475         0.094206
 C         1.972471         0.751185        -1.131483
 C         3.301121        -0.095077        -1.260316
 C         2.669985        -1.533187        -1.608862
 C         2.118381        -1.437032        -0.128666
 O         1.526951        -2.460301         0.485935
 C         3.323735        -0.563365         0.286762
 O         2.523322         0.375076         1.125442
 H        -0.053704        -0.068417         1.630094
 H        -0.225195         1.397098         0.581688
 H        -0.805584        -0.032673        -0.136801
 H         1.269954         0.731026        -2.034959
 H         2.357277         1.808414        -0.913063
 H         4.142643         0.314842        -1.967610
 H         1.969843        -1.477962        -2.426868
 H         3.315064        -2.439549        -1.463565
 H         1.078353        -2.120531         1.303704
 H         4.127145        -0.585430         1.001737
