19
Iteration:  2504charge 0 multiplicity 1
 C        -0.044198         0.196065         0.392348
 C         1.403791         0.030484        -0.024131
 C         2.034020         0.663668        -1.212489
 C         3.403886        -0.092995        -1.204379
 C         2.721356        -1.452955        -1.488066
 C         2.149957        -1.375484        -0.068457
 O         1.568037        -2.408588         0.623752
 C         3.186906        -0.501166         0.460643
 O         2.420684         0.472474         1.098013
 H        -0.309822        -0.332838         1.279319
 H        -0.426227         1.254022         0.463419
 H        -0.609200        -0.442887        -0.389789
 H         1.563981         0.657213        -2.183657
 H         2.256337         1.713579        -1.026859
 H         4.285331         0.136982        -1.667172
 H         1.952379        -1.506838        -2.293060
 H         3.443180        -2.226240        -1.557278
 H         1.567241        -3.173134        -0.064494
 H         4.126460        -0.870212         0.975995
