19
Iteration:  4600
 C        -0.032891         0.270558         0.350469
 C         1.401623         0.026315         0.055895
 C         2.114548         0.781834        -1.175495
 C         3.400047        -0.085428        -1.165540
 C         2.848907        -1.549623        -1.522761
 C         2.106463        -1.439559        -0.161099
 O         1.448047        -2.502689         0.509628
 C         3.263938        -0.417239         0.426490
 O         2.328804         0.366822         1.155943
 H        -0.443322        -0.613588         0.831274
 H         0.022593         1.011095         1.168541
 H        -0.725928         0.599864        -0.508252
 H         1.587392         0.546191        -2.113975
 H         2.368382         1.840365        -1.135356
 H         4.380877         0.196569        -1.462195
 H         2.035935        -1.591729        -2.375419
 H         3.638361        -2.340026        -1.494246
 H         1.108297        -2.035084         1.346055
 H         4.297887        -0.654118         0.738076
