19
Iteration:  3686charge 0 multiplicity 1
 C        -0.153101         0.282505         0.285469
 C         1.386680         0.066785        -0.001950
 C         2.137449         0.695859        -1.140534
 C         3.366483        -0.079372        -1.135304
 C         2.814742        -1.525707        -1.496119
 C         2.162691        -1.397642        -0.088195
 O         1.595065        -2.506130         0.511665
 C         3.244137        -0.485141         0.460161
 O         2.298736         0.464940         1.095799
 H        -0.477151        -0.443558         1.019216
 H        -0.468777         1.283633         0.571933
 H        -0.728714        -0.139327        -0.534809
 H         1.651165         0.741333        -2.182785
 H         2.274168         1.838536        -0.992698
 H         4.351846         0.018826        -1.592914
 H         2.129822        -1.617573        -2.349874
 H         3.462498        -2.411558        -1.412443
 H         1.812376        -2.691321         1.389467
 H         4.117435        -0.769955         1.101266
