19
Iteration:  1035
 C        -0.093320         0.246361         0.375520
 C         1.421240         0.047696         0.097664
 C         1.977746         0.814598        -1.190193
 C         3.340001        -0.109536        -1.275341
 C         2.774556        -1.543174        -1.525943
 C         2.135992        -1.401123        -0.070123
 O         1.530383        -2.452455         0.614174
 C         3.298990        -0.476384         0.429049
 O         2.410561         0.399711         1.116966
 H        -0.594450        -0.333222         1.100277
 H        -0.283519         1.222947         0.685632
 H        -0.491466         0.044753        -0.600705
 H         1.201500         0.696247        -2.048654
 H         2.251270         1.894903        -1.104275
 H         4.261157         0.315975        -1.777233
 H         2.138190        -1.639277        -2.467617
 H         3.657179        -2.363557        -1.521588
 H         2.142764        -3.257489         0.542723
 H         4.331532        -0.840867         0.755802
