19
Iteration:  1368charge 0 multiplicity 1
 C        -0.020772         0.186953         0.540667
 C         1.407949         0.020901        -0.067074
 C         2.102385         0.810231        -1.236696
 C         3.322650        -0.131246        -1.212505
 C         2.659025        -1.488791        -1.524201
 C         2.098576        -1.399919        -0.117847
 O         1.435943        -2.414290         0.667591
 C         3.375050        -0.473308         0.373410
 O         2.460677         0.400201         1.069717
 H        -0.250882        -0.535521         1.367674
 H        -0.145070         1.190455         1.012757
 H        -0.754389         0.009336        -0.219671
 H         1.409227         0.843718        -2.092089
 H         2.422411         1.883056        -0.907484
 H         4.208158         0.132512        -1.722967
 H         1.927713        -1.544981        -2.302775
 H         3.320959        -2.347516        -1.840688
 H         1.815091        -3.202922         0.222111
 H         4.296115        -0.662420         0.961032
