19
Iteration:   986charge 0 multiplicity 1
 C        -0.069309         0.219437         0.457970
 C         1.372509         0.122205         0.028765
 C         2.059330         0.760055        -1.263162
 C         3.362320        -0.092246        -1.179954
 C         2.785829        -1.516800        -1.532765
 C         2.078507        -1.375881        -0.163432
 O         1.679543        -2.526873         0.623408
 C         3.241397        -0.514781         0.437862
 O         2.373641         0.428003         1.071448
 H        -0.258244        -0.306351         1.456297
 H        -0.309374         1.302655         0.799709
 H        -0.793835        -0.220412        -0.322372
 H         1.645933         0.616174        -2.250339
 H         2.130258         1.863570        -1.124803
 H         4.298998         0.295708        -1.585417
 H         2.103785        -1.642054        -2.425258
 H         3.528521        -2.253131        -1.377315
 H         0.734938        -2.663645         0.502347
 H         4.044937        -0.800560         1.127012
