19
Iteration:   576charge 0 multiplicity 1
 C        -0.061172         0.203872         0.338215
 C         1.408566        -0.067202        -0.016119
 C         1.975038         0.789196        -1.146356
 C         3.336613        -0.054415        -1.222656
 C         2.772141        -1.471566        -1.544461
 C         2.191070        -1.385023        -0.104220
 O         1.487280        -2.419712         0.637265
 C         3.318342        -0.432702         0.410080
 O         2.388510         0.328326         1.131195
 H        -0.322330        -0.493007         1.199019
 H        -0.246116         1.278447         0.508976
 H        -0.644380        -0.081239        -0.633831
 H         1.493081         0.837837        -2.194929
 H         2.124356         1.844042        -1.023710
 H         4.188776         0.272017        -1.719447
 H         2.103731        -1.614460        -2.394030
 H         3.589033        -2.301069        -1.625638
 H         2.026315        -2.754968         1.418370
 H         4.318348        -0.678161         0.940405
