19
Iteration:   174
 C        -0.119256         0.219481         0.393757
 C         1.329360        -0.030335         0.041136
 C         1.998541         0.673811        -1.227599
 C         3.482906        -0.027818        -1.135141
 C         2.940007        -1.423709        -1.526141
 C         2.088996        -1.374134        -0.156796
 O         1.491099        -2.377521         0.637092
 C         3.224461        -0.473467         0.375370
 O         2.393807         0.359928         1.104108
 H        -0.472999        -0.480970         1.197535
 H        -0.232723         1.263897         0.689931
 H        -0.684800        -0.001054        -0.574637
 H         1.413737         0.258532        -2.024923
 H         1.837428         1.749098        -1.193961
 H         4.270713         0.408600        -1.554997
 H         2.560531        -1.400016        -2.544564
 H         3.582370        -2.310705        -1.290901
 H         2.122607        -3.167534         0.725258
 H         4.036618        -0.963334         0.882138
