19
Iteration:   376charge 0 multiplicity 1
 C        -0.035676         0.208134         0.363347
 C         1.391832         0.035218         0.033314
 C         2.011625         0.781736        -1.144991
 C         3.297551        -0.001751        -1.178662
 C         2.860936        -1.488120        -1.441904
 C         2.100597        -1.467893        -0.147175
 O         1.473532        -2.435490         0.619144
 C         3.317250        -0.426763         0.301718
 O         2.373878         0.362692         1.100661
 H        -0.265205        -0.453045         1.193280
 H        -0.223691         1.234923         0.729584
 H        -0.719787        -0.131166        -0.481065
 H         1.389880         0.552337        -1.975975
 H         2.123213         1.810874        -0.983972
 H         4.268332         0.325565        -1.839686
 H         2.360827        -2.072570        -2.336117
 H         3.824596        -2.060555        -1.322811
 H         2.115875        -3.131661         0.570078
 H         4.165372        -0.756232         0.846182
