19
Iteration:  4220charge 0 multiplicity 1
 C        -0.152284         0.197419         0.240999
 C         1.409502         0.052008         0.048131
 C         2.084318         0.808311        -1.224351
 C         3.346565        -0.058674        -1.221486
 C         2.825739        -1.495840        -1.479387
 C         2.186278        -1.406449        -0.115611
 O         1.441347        -2.393545         0.559299
 C         3.257048        -0.549281         0.559122
 O         2.408726         0.360205         1.157753
 H        -0.421014        -0.357523         1.101328
 H        -0.415709         1.261263         0.056180
 H        -0.698631        -0.353124        -0.617930
 H         1.652579         0.722583        -2.324348
 H         2.153134         1.912650        -1.022876
 H         4.370623         0.234316        -1.387162
 H         2.063998        -1.782598        -2.325453
 H         3.788246        -2.118481        -1.460836
 H         2.023391        -2.971042         1.178828
 H         4.325003        -0.746923         0.986077
