19
Iteration:  3146charge 0 multiplicity 1
 C        -0.033360         0.161141         0.270237
 C         1.400087         0.025293         0.030141
 C         2.012867         0.783306        -1.139789
 C         3.366692        -0.094614        -1.205950
 C         2.844843        -1.508660        -1.392491
 C         2.080410        -1.385846        -0.114176
 O         1.468940        -2.430131         0.563756
 C         3.231701        -0.424145         0.404014
 O         2.422539         0.407380         1.115481
 H        -0.443672        -0.608454         0.853205
 H        -0.257386         1.165988         0.723711
 H        -0.626485         0.099242        -0.690936
 H         1.521451         0.623537        -2.156697
 H         2.145904         1.848693        -0.814043
 H         4.228016         0.232088        -1.712242
 H         2.391318        -1.787887        -2.444927
 H         3.646993        -2.206640        -1.376086
 H         2.063773        -2.885687         1.101169
 H         4.157030        -0.954833         0.769807
