19
Iteration:  1955
 C         0.032361         0.253959         0.432972
 C         1.439317         0.115699         0.030455
 C         2.012086         0.765742        -1.169468
 C         3.300103        -0.147507        -1.284787
 C         2.633101        -1.489513        -1.542306
 C         2.148454        -1.393118        -0.076226
 O         1.531812        -2.527028         0.637109
 C         3.310359        -0.489524         0.411612
 O         2.423695         0.423435         1.081263
 H        -0.204735        -0.437568         1.287930
 H         0.142076         1.214309         0.931306
 H        -0.693379         0.126453        -0.349423
 H         1.372958         0.988922        -2.040436
 H         2.174031         1.860646        -0.955320
 H         4.280755         0.133075        -1.681229
 H         1.887313        -1.537415        -2.313661
 H         3.352695        -2.241823        -1.715996
 H         1.594143        -3.380619         0.106855
 H         4.231951        -0.622885         0.954381
