19
Iteration:   230
 C        -0.132666         0.148292         0.397150
 C         1.358117         0.048815         0.029605
 C         2.123881         0.745594        -1.222656
 C         3.348618        -0.137656        -1.092027
 C         2.705438        -1.475591        -1.471511
 C         2.139277        -1.356551        -0.077437
 O         1.650201        -2.565463         0.444101
 C         3.274820        -0.428733         0.427127
 O         2.383825         0.523349         1.085844
 H        -0.260790        -0.503433         1.321781
 H        -0.458686         1.203935         0.571242
 H        -0.622473        -0.285122        -0.452999
 H         1.681858         0.717230        -2.173033
 H         2.279894         1.797251        -0.938863
 H         4.205922         0.207308        -1.673091
 H         2.146352        -1.651135        -2.443798
 H         3.452220        -2.265333        -1.368077
 H         0.965456        -2.505961         1.188166
 H         4.196366        -0.734727         0.943830
