19
Iteration:   925charge 0 multiplicity 1
 C        -0.023910         0.187877         0.354760
 C         1.431745         0.059174         0.056558
 C         1.932567         0.739856        -1.199674
 C         3.318045        -0.135950        -1.169041
 C         2.857443        -1.474112        -1.469503
 C         2.152380        -1.392543        -0.086919
 O         1.487221        -2.465570         0.529390
 C         3.249511        -0.454129         0.377941
 O         2.400640         0.447101         1.108132
 H        -0.173766        -0.366745         1.293027
 H        -0.276893         1.203945         0.500588
 H        -0.623307        -0.141018        -0.440911
 H         1.447640         0.553173        -2.191973
 H         2.254802         1.794392        -0.944335
 H         4.190699         0.349457        -1.542461
 H         2.221201        -1.649482        -2.326865
 H         3.524720        -2.325468        -1.800750
 H         1.855084        -2.874289         1.352997
 H         4.290923        -0.772462         0.871176
