19
Iteration:  1699charge 0 multiplicity 1
 C         0.059521         0.283453         0.619416
 C         1.446621         0.060521         0.085771
 C         2.003006         0.769637        -1.178004
 C         3.247518        -0.094656        -1.261933
 C         2.733769        -1.546586        -1.617544
 C         2.055110        -1.356155        -0.198007
 O         1.457506        -2.443591         0.537815
 C         3.297793        -0.519025         0.343620
 O         2.530373         0.327183         1.119144
 H        -0.201850        -0.230701         1.551062
 H        -0.181066         1.358434         0.695094
 H        -0.560217        -0.338206        -0.115665
 H         1.270282         0.616759        -2.061671
 H         2.073243         1.860148        -0.990565
 H         4.131478         0.443197        -1.699102
 H         2.310321        -1.766886        -2.561152
 H         3.515293        -2.306247        -1.551435
 H         1.401590        -2.112157         1.476849
 H         4.251489        -0.996822         0.562238
