19
Iteration:  2842charge 0 multiplicity 1
 C        -0.120180         0.149604         0.369435
 C         1.383053         0.058343         0.046528
 C         2.026820         0.837490        -1.241341
 C         3.357277        -0.089455        -1.207359
 C         2.860619        -1.526722        -1.450135
 C         2.169072        -1.430131        -0.121066
 O         1.495240        -2.471407         0.562890
 C         3.228387        -0.459440         0.344835
 O         2.454651         0.391542         1.173169
 H        -0.274144        -0.427636         1.291512
 H        -0.452162         1.143404         0.475257
 H        -0.737465        -0.248793        -0.505041
 H         1.402180         0.675183        -2.140795
 H         2.376008         1.781294        -0.871116
 H         4.295775         0.264389        -1.727007
 H         2.242348        -1.765286        -2.361941
 H         3.595026        -2.307831        -1.489589
 H         1.152217        -1.773899         1.138887
 H         4.278429        -0.708185         0.864581
