19
Iteration:     1
 C        -0.059566         0.178390         0.337664
 C         1.393472         0.028486         0.001128
 C         2.036986         0.753659        -1.197872
 C         3.338421        -0.069259        -1.129839
 C         2.829063        -1.502026        -1.459318
 C         2.140219        -1.390000        -0.102719
 O         1.606119        -2.499226         0.525623
 C         3.250419        -0.451769         0.426174
 O         2.318423         0.417852         1.076325
 H        -0.343886        -0.473989         1.169196
 H        -0.282882         1.211711         0.622425
 H        -0.678787        -0.083314        -0.525731
 H         1.506689         0.623267        -2.145479
 H         2.156220         1.818292        -0.983243
 H         4.244557         0.328643        -1.579511
 H         2.226741        -1.634601        -2.362370
 H         3.621335        -2.255061        -1.423631
 H         1.403439        -2.256759         1.437177
 H         4.141569        -0.714447         0.994140
