19
Iteration:  2654charge 0 multiplicity 1
 C        -0.040130         0.168696         0.326874
 C         1.410520        -0.024391         0.045850
 C         2.032229         0.667500        -1.232486
 C         3.409897        -0.010525        -1.165037
 C         2.822099        -1.437341        -1.512516
 C         2.119280        -1.362147        -0.120433
 O         1.459473        -2.384866         0.685221
 C         3.291397        -0.508055         0.399626
 O         2.353047         0.393293         1.093155
 H        -0.414647        -0.169306         1.300827
 H        -0.120437         1.306086         0.134424
 H        -0.607418        -0.259987        -0.465596
 H         1.474298         0.474941        -2.150419
 H         2.180687         1.735518        -0.929395
 H         4.037784         0.587323        -1.819686
 H         2.225645        -1.537123        -2.485618
 H         3.481697        -2.286618        -1.557911
 H         2.068991        -3.151307         0.943244
 H         4.060971        -0.920809         1.021473
