19
Iteration:   931charge 0 multiplicity 1
 C        -0.009630         0.203910         0.350796
 C         1.417624         0.023147         0.045905
 C         1.980356         0.734797        -1.188266
 C         3.280812        -0.064105        -1.201773
 C         2.840593        -1.488411        -1.426345
 C         2.168415        -1.415185        -0.076274
 O         1.454221        -2.494417         0.525722
 C         3.307143        -0.436270         0.385585
 O         2.407030         0.415547         1.088986
 H        -0.163064        -0.395202         1.268797
 H        -0.257622         1.314127         0.485928
 H        -0.738479        -0.198106        -0.439226
 H         1.539464         0.576291        -2.175872
 H         1.987402         1.828838        -1.045202
 H         4.224805         0.314111        -1.644078
 H         2.092023        -1.426951        -2.286380
 H         3.644591        -2.207387        -1.519849
 H         1.776490        -2.732719         1.372752
 H         4.223151        -0.672941         0.811823
