19
Iteration:  2236
 C         0.044263         0.221414         0.482025
 C         1.394824         0.091524        -0.054553
 C         2.092743         0.810559        -1.190966
 C         3.346215        -0.121139        -1.216753
 C         2.680256        -1.460238        -1.523375
 C         2.110362        -1.375417        -0.128852
 O         1.558685        -2.485206         0.722861
 C         3.264618        -0.512296         0.354647
 O         2.347593         0.392411         1.069907
 H        -0.015424        -0.435126         1.416764
 H        -0.250788         1.252867         0.624117
 H        -0.621608        -0.258510        -0.345936
 H         1.498902         0.937670        -2.131141
 H         2.296281         1.816171        -0.943657
 H         4.196701         0.112421        -1.724022
 H         2.163783        -1.565579        -2.435458
 H         3.416720        -2.285130        -1.337995
 H         1.433077        -3.157647        -0.035376
 H         4.116420        -0.946222         0.910414
