19
Iteration:  1172charge 0 multiplicity 1
 C         0.050360         0.300006         0.421122
 C         1.432128         0.051600         0.059786
 C         2.011284         0.797538        -1.130991
 C         3.246508        -0.169478        -1.152663
 C         2.672466        -1.586709        -1.543824
 C         2.099423        -1.398039        -0.166361
 O         1.605009        -2.466041         0.546706
 C         3.235525        -0.487565         0.371478
 O         2.376796         0.404389         1.038255
 H        -0.046961        -0.281752         1.421447
 H         0.007879         1.381518         0.819529
 H        -0.639521         0.008109        -0.335984
 H         1.525352         0.832300        -2.060319
 H         2.270406         1.862616        -0.923168
 H         4.094444         0.247653        -1.627470
 H         2.061204        -1.545455        -2.488318
 H         3.509606        -2.272883        -1.207783
 H         2.295240        -2.814925         1.075479
 H         4.168996        -0.688326         0.997839
