19
Iteration:  2940charge 0 multiplicity 1
 C        -0.052485         0.334275         0.369686
 C         1.419083         0.033176         0.004842
 C         1.997254         0.735985        -1.189744
 C         3.319255        -0.047210        -1.142289
 C         2.811298        -1.487910        -1.511606
 C         2.183068        -1.459025        -0.134350
 O         1.528592        -2.486607         0.591358
 C         3.240329        -0.497353         0.394919
 O         2.345505         0.352200         1.085123
 H        -0.380509        -0.224794         1.267077
 H        -0.229540         1.404777         0.630483
 H        -0.648780         0.150653        -0.599497
 H         1.454620         0.435452        -2.130754
 H         2.152486         1.813108        -0.992320
 H         4.309392         0.300150        -1.503556
 H         2.298898        -1.663344        -2.540783
 H         3.540420        -2.274089        -1.353066
 H         2.151225        -2.563016         1.337231
 H         4.281108        -0.741420         0.903139
