19
Iteration:   365charge 0 multiplicity 1
 C        -0.041942         0.202092         0.391643
 C         1.450574        -0.015780         0.064262
 C         1.973536         0.788260        -1.172317
 C         3.261177        -0.057334        -1.259376
 C         2.889889        -1.579639        -1.449708
 C         2.161483        -1.344916        -0.092297
 O         1.478345        -2.477612         0.584761
 C         3.298318        -0.394073         0.376652
 O         2.364572         0.402458         1.101045
 H        -0.379045        -0.476106         1.173316
 H        -0.329138         1.245922         0.637867
 H        -0.645016         0.038061        -0.562002
 H         1.493221         0.929567        -2.105395
 H         2.181745         1.734808        -0.756343
 H         4.232788         0.481862        -1.801754
 H         2.225215        -1.870804        -2.387368
 H         3.773020        -2.232233        -1.210888
 H         1.734281        -3.350178         0.257586
 H         4.240718        -0.645136         0.821774
