19
Iteration:  2304charge 0 multiplicity 1
 C        -0.005320         0.305258         0.464803
 C         1.455425         0.047862         0.013097
 C         1.981984         0.801287        -1.191005
 C         3.287179        -0.142869        -1.158688
 C         2.756511        -1.549700        -1.526045
 C         2.147046        -1.420703        -0.082415
 O         1.577217        -2.523741         0.497585
 C         3.263450        -0.491501         0.379415
 O         2.399157         0.436181         1.074244
 H        -0.171220        -0.305564         1.445413
 H        -0.378394         1.379986         0.582986
 H        -0.689596        -0.153975        -0.272589
 H         1.443360         0.760455        -2.189780
 H         2.115268         1.903522        -1.042515
 H         4.263521         0.293028        -1.590875
 H         2.135676        -1.793800        -2.439902
 H         3.556106        -2.298436        -1.417043
 H         1.414770        -2.167925         1.369154
 H         3.992031        -0.980997         0.950879
