19
Iteration:   536charge 0 multiplicity 1
 C        -0.105003         0.142906         0.376661
 C         1.382867         0.073390        -0.001181
 C         2.051123         0.811098        -1.228553
 C         3.301236        -0.091441        -1.176427
 C         2.758525        -1.500168        -1.430273
 C         2.071640        -1.363388        -0.085359
 O         1.584147        -2.524628         0.513945
 C         3.279169        -0.479193         0.445652
 O         2.467864         0.444793         1.072025
 H        -0.253519        -0.491488         1.255296
 H        -0.325183         1.207215         0.669788
 H        -0.709288         0.034476        -0.479512
 H         1.402653         0.854484        -2.156629
 H         1.905112         1.893499        -0.929941
 H         4.203305         0.210405        -1.749028
 H         2.274863        -1.687674        -2.419839
 H         3.443304        -2.321810        -1.273826
 H         2.110122        -2.751678         1.255636
 H         4.177841        -0.952949         0.983127
