19
Iteration:  1593
 C         0.086337         0.318030         0.582286
 C         1.459791         0.063598         0.088686
 C         1.987504         0.773717        -1.199241
 C         3.237169        -0.058758        -1.293037
 C         2.725751        -1.498172        -1.649863
 C         2.169579        -1.482015        -0.136923
 O         1.424063        -2.420583         0.611020
 C         3.233375        -0.559935         0.382672
 O         2.469601         0.316634         1.062312
 H        -0.049687        -0.401690         1.355581
 H         0.007891         1.252705         1.071990
 H        -0.617470         0.295725        -0.290485
 H         1.585233         0.765910        -2.228844
 H         2.171184         1.809330        -0.993298
 H         4.064205         0.365648        -1.761198
 H         1.873025        -1.689004        -2.460767
 H         3.620590        -2.100331        -1.648187
 H         1.982963        -2.681783         1.400662
 H         4.198817        -0.801475         0.823623
