19
Iteration:  3074charge 0 multiplicity 1
 C        -0.115294         0.386185         0.379279
 C         1.360761         0.121105         0.031969
 C         2.027283         0.787489        -1.177667
 C         3.336226        -0.123378        -1.164774
 C         2.898043        -1.536096        -1.520520
 C         2.174178        -1.459834        -0.105070
 O         1.646038        -2.580707         0.567898
 C         3.241857        -0.496789         0.406365
 O         2.344852         0.402009         1.110497
 H        -0.613564        -0.181127         1.292122
 H        -0.364886         1.430051         0.321991
 H        -0.749458        -0.135855        -0.395954
 H         1.374428         0.566872        -2.094074
 H         2.223406         1.869084        -0.937112
 H         4.249052         0.356098        -1.602402
 H         2.316817        -1.871722        -2.313489
 H         3.686919        -2.354930        -1.547027
 H         0.723585        -2.444017         0.544174
 H         4.166541        -0.689245         1.026749
