19
Iteration:  4236
 C        -0.001450         0.087026         0.216463
 C         1.469770         0.044675        -0.000890
 C         2.071787         0.801471        -1.163631
 C         3.324932        -0.079129        -1.122461
 C         2.811677        -1.530983        -1.488959
 C         2.219358        -1.382452        -0.094740
 O         1.381064        -2.281083         0.551352
 C         3.287680        -0.488947         0.457314
 O         2.323776         0.335628         1.157229
 H        -0.351533        -0.039666         1.278013
 H        -0.466218         1.075032         0.042478
 H        -0.442873        -0.610042        -0.473222
 H         1.422022         0.669479        -1.972197
 H         2.400693         1.796055        -0.924348
 H         4.168840         0.309453        -1.722096
 H         2.207837        -1.590639        -2.338237
 H         3.527891        -2.336620        -1.607247
 H         1.884531        -2.984479         1.040969
 H         4.095732        -0.740508         1.045629
