19
Iteration:  3292
 C        -0.075588         0.185546         0.343869
 C         1.395878         0.061681        -0.029689
 C         2.111931         0.799859        -1.161171
 C         3.368895        -0.139272        -1.163578
 C         2.812818        -1.489751        -1.498621
 C         2.131695        -1.404153        -0.117182
 O         1.533265        -2.399935         0.561752
 C         3.209347        -0.559457         0.436813
 O         2.321918         0.419794         1.054731
 H        -0.303380        -0.452726         1.273687
 H        -0.205015         1.167335         0.704335
 H        -0.828396        -0.036118        -0.363182
 H         1.484892         0.726958        -2.044362
 H         2.314538         1.694706        -0.623018
 H         4.217537         0.529984        -1.583694
 H         2.274869        -1.677424        -2.515478
 H         3.536648        -2.347696        -1.401708
 H         2.222652        -2.722662         1.255166
 H         4.072245        -0.817006         1.042376
