19
Iteration:   690
 C        -0.061421         0.176364         0.396230
 C         1.345831         0.037621         0.025548
 C         2.017774         0.765086        -1.217921
 C         3.359435        -0.037643        -1.137078
 C         2.812993        -1.544910        -1.446976
 C         2.086454        -1.350758        -0.138885
 O         1.599681        -2.374313         0.598077
 C         3.241781        -0.506798         0.444299
 O         2.400716         0.382089         1.046636
 H        -0.192766        -0.505659         1.232793
 H        -0.389714         1.255251         0.730910
 H        -0.730395        -0.089700        -0.392989
 H         1.498539         0.592625        -2.265340
 H         2.080983         1.885987        -1.032013
 H         4.364760         0.308329        -1.638331
 H         2.168131        -1.593871        -2.416231
 H         3.507919        -2.385813        -1.451130
 H         1.908814        -3.252407         0.217022
 H         4.078060        -0.964584         0.943679
