19
Iteration:  1066charge 0 multiplicity 1
 C         0.009909         0.177562         0.438759
 C         1.392381         0.023470        -0.033393
 C         1.998004         0.784382        -1.190540
 C         3.356015        -0.097773        -1.183060
 C         2.747666        -1.476492        -1.521894
 C         2.122227        -1.361514        -0.155798
 O         1.516125        -2.485090         0.584641
 C         3.263770        -0.534218         0.451199
 O         2.418798         0.446679         1.060352
 H        -0.219921        -0.496727         1.321767
 H        -0.139765         1.238472         0.798857
 H        -0.672768        -0.051705        -0.375339
 H         1.362345         0.586346        -2.109852
 H         2.142608         1.863218        -0.956852
 H         4.220081         0.313115        -1.705353
 H         2.202095        -1.617620        -2.490622
 H         3.435951        -2.253669        -1.655371
 H         1.735959        -2.492977         1.518594
 H         4.228851        -0.824594         1.007332
