19
Iteration:  1747
 C         0.034739         0.225395         0.551757
 C         1.446443         0.083941         0.117486
 C         2.099458         0.778138        -1.162162
 C         3.295363        -0.198168        -1.244014
 C         2.591207        -1.491146        -1.575419
 C         2.137304        -1.448593        -0.098052
 O         1.480843        -2.446809         0.518454
 C         3.285618        -0.512297         0.286136
 O         2.444435         0.497798         1.110890
 H        -0.295734        -0.590540         1.238874
 H         0.118180         1.242556         0.949198
 H        -0.725021        -0.037297        -0.193583
 H         1.377053         0.774032        -2.061393
 H         2.431617         1.766239        -0.794766
 H         4.127272         0.134694        -1.860814
 H         1.817772        -1.415809        -2.411432
 H         3.246847        -2.278394        -1.914638
 H         2.086213        -3.034455         0.971303
 H         4.262456        -0.785057         0.839241
