19
Iteration:  3270charge 0 multiplicity 1
 C        -0.016795         0.326112         0.330968
 C         1.414921         0.049558        -0.037715
 C         2.065235         0.837458        -1.240598
 C         3.301519        -0.027300        -1.110430
 C         2.804671        -1.543327        -1.505347
 C         2.116487        -1.414632        -0.064876
 O         1.538476        -2.552001         0.600920
 C         3.247780        -0.495378         0.410979
 O         2.319109         0.371000         1.140394
 H        -0.426958        -0.250649         1.231192
 H        -0.383105         1.296069         0.387487
 H        -0.528422        -0.123559        -0.492677
 H         1.587305         0.429478        -2.147042
 H         2.104014         1.905549        -1.010887
 H         4.338744         0.364103        -1.533695
 H         2.257149        -1.503992        -2.541262
 H         3.629229        -2.313714        -1.557811
 H         2.248688        -3.106592         0.826018
 H         4.173924        -0.756116         0.928544
