19
Iteration:  4761
 C        -0.023872         0.207822         0.467026
 C         1.416935         0.087882         0.001017
 C         2.119410         0.846889        -1.147730
 C         3.455664        -0.122449        -1.195082
 C         2.759680        -1.480142        -1.507767
 C         2.064489        -1.405146        -0.165535
 O         1.370584        -2.485823         0.441077
 C         3.301349        -0.575554         0.440955
 O         2.397930         0.396128         1.104939
 H        -0.210577         0.023711         1.505450
 H        -0.360606         1.201707         0.234404
 H        -0.715852        -0.557250        -0.020070
 H         1.580217         0.713923        -2.107818
 H         2.492486         1.830635        -0.737106
 H         4.458244         0.170953        -1.498579
 H         2.058548        -1.648102        -2.352607
 H         3.600014        -2.253509        -1.507520
 H         1.353163        -2.209397         1.423541
 H         4.254184        -0.717696         0.940588
