19
Iteration:  2661charge 0 multiplicity 1
 C        -0.050545         0.123696         0.310994
 C         1.437364        -0.043503         0.012607
 C         1.990406         0.672310        -1.147777
 C         3.387632        -0.104974        -1.188720
 C         2.794537        -1.461286        -1.540447
 C         2.162730        -1.344288        -0.120536
 O         1.426826        -2.352258         0.650932
 C         3.289389        -0.434538         0.386240
 O         2.399348         0.408375         1.121702
 H        -0.410609        -0.062162         1.367851
 H        -0.272361         1.171292         0.217993
 H        -0.600301        -0.232274        -0.584995
 H         1.606507         0.514518        -2.176135
 H         2.058657         1.760690        -0.964327
 H         4.246931         0.664814        -1.508312
 H         2.238526        -1.590375        -2.429421
 H         3.568229        -2.250668        -1.160009
 H         1.912529        -3.189492         0.804926
 H         4.225261        -0.736021         0.866636
