19
Iteration:  1069
 C        -0.001000         0.162318         0.478909
 C         1.394459         0.059029        -0.025564
 C         1.998755         0.777551        -1.205747
 C         3.362130        -0.104039        -1.183700
 C         2.758437        -1.460660        -1.540121
 C         2.139584        -1.381466        -0.149739
 O         1.513098        -2.493886         0.581572
 C         3.266542        -0.544911         0.432447
 O         2.404275         0.450675         1.061423
 H        -0.233162        -0.470472         1.241634
 H        -0.085945         1.180441         0.657811
 H        -0.700607        -0.008835        -0.353306
 H         1.358597         0.673648        -2.156062
 H         2.169956         1.817543        -0.954794
 H         4.302179         0.300520        -1.676436
 H         2.067720        -1.555435        -2.399293
 H         3.538410        -2.335758        -1.589699
 H         1.672466        -2.390567         1.581326
 H         4.139621        -0.780548         1.019262
