19
Iteration:  1962charge 0 multiplicity 1
 C         0.025639         0.277008         0.459830
 C         1.429318         0.058461         0.046605
 C         2.048221         0.786698        -1.209028
 C         3.265730        -0.091213        -1.280507
 C         2.630605        -1.477932        -1.503512
 C         2.199021        -1.455595        -0.061863
 O         1.508750        -2.497034         0.625314
 C         3.321198        -0.500065         0.405356
 O         2.437406         0.424790         1.060422
 H        -0.198388        -0.503878         1.168876
 H        -0.081944         1.301592         0.859903
 H        -0.807744         0.277843        -0.346903
 H         1.236706         0.497418        -2.001993
 H         2.195042         1.740617        -0.749566
 H         4.239647         0.230591        -1.745749
 H         1.881586        -1.542422        -2.415506
 H         3.459075        -2.312897        -1.520196
 H         1.505974        -3.182457        -0.120515
 H         4.332556        -0.681966         0.963106
