19
Iteration:  1486
 C         0.008580         0.407127         0.508870
 C         1.403548         0.113534         0.035900
 C         2.053362         0.777296        -1.186950
 C         3.302363        -0.109327        -1.214715
 C         2.637525        -1.560472        -1.593240
 C         2.038121        -1.382401        -0.170740
 O         1.736357        -2.505191         0.604236
 C         3.220367        -0.559196         0.359851
 O         2.456998         0.360720         1.138022
 H        -0.168084        -0.149779         1.470929
 H        -0.330469         1.446748         0.721653
 H        -0.693505        -0.233440        -0.101970
 H         1.347382         0.605283        -1.990525
 H         2.347721         1.854919        -1.131205
 H         4.157682         0.335443        -1.514310
 H         2.068562        -1.649487        -2.486545
 H         3.335893        -2.387725        -1.753957
 H         0.758429        -2.753784         0.658338
 H         4.063945        -1.160162         0.726837
