19
Iteration:  1455
 C         0.027480         0.403529         0.494880
 C         1.398584        -0.032545        -0.015513
 C         2.048314         0.789419        -1.120093
 C         3.289567        -0.089260        -1.239349
 C         2.601354        -1.536703        -1.528800
 C         2.157707        -1.445549        -0.082929
 O         1.627794        -2.600973         0.536394
 C         3.292212        -0.488144         0.365980
 O         2.440930         0.440402         1.042277
 H        -0.168390        -0.122156         1.492877
 H        -0.099646         1.496270         0.761613
 H        -0.755898         0.137202        -0.233682
 H         1.397174         0.922278        -1.998781
 H         2.192744         1.884584        -0.791112
 H         4.218213         0.226883        -1.660283
 H         1.833767        -1.573201        -2.225106
 H         3.405218        -2.308992        -1.723094
 H         0.881779        -2.518184         1.107684
 H         4.157370        -0.958532         0.854756
