19
Iteration:   210charge 0 multiplicity 1
 C         0.019075         0.170216         0.428687
 C         1.451079         0.029589        -0.047443
 C         2.041794         0.846925        -1.180995
 C         3.341670        -0.062912        -1.260928
 C         2.848374        -1.553732        -1.378571
 C         2.139254        -1.414983        -0.096008
 O         1.511333        -2.555912         0.468933
 C         3.224571        -0.405320         0.426755
 O         2.264518         0.426112         1.079664
 H        -0.159300        -0.450506         1.355318
 H        -0.204491         1.249460         0.660600
 H        -0.711178        -0.219489        -0.244088
 H         1.512532         0.857517        -2.077822
 H         2.288788         1.868439        -0.934980
 H         4.421539         0.297121        -1.714909
 H         2.273192        -1.713773        -2.372836
 H         3.614392        -2.303113        -1.417984
 H         1.595968        -2.486331         1.486833
 H         4.093622        -0.509307         1.115695
