19
Iteration:  3764
 C        -0.017064         0.104992         0.292330
 C         1.460593         0.100635        -0.013187
 C         2.079387         0.714999        -1.232159
 C         3.360651        -0.041899        -1.107324
 C         2.846918        -1.500050        -1.407753
 C         2.080636        -1.377159        -0.081904
 O         1.422866        -2.428350         0.565070
 C         3.262851        -0.446805         0.408455
 O         2.362802         0.420694         1.108679
 H        -0.402871        -0.569071         0.997537
 H        -0.260852         1.135967         0.648051
 H        -0.626585         0.015105        -0.645724
 H         1.538005         0.374240        -2.160700
 H         2.117161         1.834701        -0.914920
 H         4.247984         0.365611        -1.495772
 H         2.260358        -1.792141        -2.248987
 H         3.731307        -2.197172        -1.263539
 H         1.768917        -3.241741         0.242861
 H         4.098629        -0.618083         1.104134
