19
Iteration:  4037charge 0 multiplicity 1
 C        -0.003454         0.258832         0.250545
 C         1.433478         0.045206         0.027757
 C         2.031395         0.733813        -1.188557
 C         3.331867        -0.071948        -1.124513
 C         2.904860        -1.477641        -1.454701
 C         2.111187        -1.403146        -0.117080
 O         1.471605        -2.459668         0.507828
 C         3.219353        -0.501005         0.492524
 O         2.348663         0.346197         1.121899
 H        -0.218776         0.245618         1.336165
 H        -0.267765         1.338522        -0.139990
 H        -0.805926        -0.428845        -0.290421
 H         1.324457         0.662128        -2.028722
 H         2.114515         1.865124        -1.139751
 H         4.044403         0.307310        -1.799659
 H         2.303180        -1.683857        -2.344345
 H         3.864257        -2.144391        -1.296846
 H         1.982448        -2.804772         1.274290
 H         4.121702        -0.720095         1.063102
