19
Iteration:  2361
 C        -0.036687         0.239581         0.358794
 C         1.381617         0.068996         0.049398
 C         2.035773         0.735292        -1.174746
 C         3.267779        -0.122245        -1.226119
 C         2.764273        -1.516388        -1.490915
 C         2.152498        -1.357211        -0.112638
 O         1.548873        -2.397685         0.632813
 C         3.254522        -0.480498         0.427207
 O         2.467699         0.364168         1.088759
 H        -0.352754        -0.685106         0.888506
 H        -0.229777         1.168640         1.049032
 H        -0.603354         0.193468        -0.571796
 H         1.348223         0.494128        -1.998642
 H         2.174983         1.858799        -1.337392
 H         4.238303         0.448331        -1.628976
 H         2.015682        -1.567944        -2.354189
 H         3.587448        -2.183432        -1.324769
 H         1.527260        -3.284590         0.132723
 H         4.129847        -0.877076         0.976759
