19
Iteration:  2003
 C         0.015559         0.319709         0.586657
 C         1.426831         0.079363         0.058391
 C         2.022860         0.715414        -1.218606
 C         3.280766        -0.103129        -1.220380
 C         2.844245        -1.543244        -1.564245
 C         2.047408        -1.383974        -0.145725
 O         1.572692        -2.460396         0.583828
 C         3.213159        -0.542888         0.378919
 O         2.441724         0.440905         1.077087
 H        -0.157944        -0.543766         1.199813
 H        -0.167902         1.265068         1.207161
 H        -0.664570        -0.021085        -0.233682
 H         1.446793         0.536008        -2.109340
 H         2.084872         1.804471        -1.315963
 H         4.121324         0.360975        -1.780670
 H         2.334071        -1.714528        -2.508755
 H         3.680847        -2.259957        -1.371080
 H         0.716453        -2.720997         0.324453
 H         4.106111        -1.050481         0.857488
