19
Iteration:  2852
 C        -0.037933         0.145318         0.374075
 C         1.430834         0.029600         0.063217
 C         2.011422         0.804337        -1.159765
 C         3.295572        -0.090377        -1.176289
 C         2.870501        -1.552231        -1.477709
 C         2.145900        -1.413237        -0.124070
 O         1.463045        -2.440285         0.563241
 C         3.344485        -0.409390         0.331053
 O         2.410267         0.377234         1.129089
 H        -0.587952        -0.241761         1.220106
 H        -0.339453         1.207598         0.415033
 H        -0.448154        -0.303592        -0.573466
 H         1.450808         0.656318        -2.119629
 H         2.042384         1.907498        -1.204794
 H         4.105674         0.402689        -1.756476
 H         2.279201        -1.652664        -2.442555
 H         3.680770        -2.183449        -1.241193
 H         0.774735        -2.205665         1.171159
 H         4.280032        -0.915332         0.832847
