19
Iteration:  4300
 C        -0.005203         0.278072         0.341950
 C         1.400508         0.019272         0.019086
 C         2.101750         0.704249        -1.223356
 C         3.362355        -0.075915        -1.118473
 C         2.849140        -1.549347        -1.403831
 C         2.079187        -1.368038        -0.128108
 O         1.465646        -2.529197         0.488935
 C         3.268889        -0.374018         0.487590
 O         2.281578         0.424645         1.117816
 H        -0.239833         0.068504         1.436420
 H         0.030035         1.404725         0.311732
 H        -0.668123        -0.298184        -0.336187
 H         1.651655         0.566376        -2.197615
 H         2.260724         1.794960        -1.116443
 H         4.209691         0.378473        -1.623159
 H         2.397793        -1.623771        -2.376766
 H         3.649657        -2.369828        -1.101317
 H         1.882140        -3.330615        -0.006023
 H         4.115239        -0.693200         0.948754
