19
Iteration:  1168
 C         0.070797         0.291909         0.442427
 C         1.417396         0.059872         0.070713
 C         2.020997         0.774227        -1.126880
 C         3.234450        -0.180322        -1.151254
 C         2.668268        -1.560974        -1.538390
 C         2.095718        -1.395444        -0.147889
 O         1.605409        -2.450021         0.533829
 C         3.240918        -0.474557         0.397331
 O         2.379179         0.389966         1.028401
 H        -0.167025        -0.233666         1.301927
 H         0.082725         1.341781         0.582863
 H        -0.665887         0.085965        -0.350756
 H         1.577724         0.760567        -2.193119
 H         2.228871         1.830043        -0.875715
 H         4.062295         0.338337        -1.688457
 H         2.035581        -1.651397        -2.384568
 H         3.526340        -2.208354        -1.261889
 H         2.358809        -2.957320         0.979653
 H         4.152933        -0.690099         0.879360
