19
Iteration:  2898charge 0 multiplicity 1
 C        -0.087163         0.281354         0.449840
 C         1.372674         0.108900         0.072568
 C         2.134374         0.759593        -1.262274
 C         3.377273        -0.106215        -1.120715
 C         2.761558        -1.555353        -1.524998
 C         2.057224        -1.414128        -0.076611
 O         1.636435        -2.615936         0.493299
 C         3.297795        -0.458985         0.401833
 O         2.309578         0.453263         1.038443
 H        -0.137185        -0.105759         1.484358
 H        -0.385859         1.234715         0.686624
 H        -0.821225        -0.215728        -0.258792
 H         1.577418         0.737615        -2.234729
 H         2.251914         1.812817        -1.093929
 H         4.343852         0.275424        -1.518898
 H         2.059618        -1.639244        -2.353820
 H         3.603716        -2.219779        -1.405236
 H         1.069347        -2.427092         1.201226
 H         4.274648        -0.405284         1.042853
