19
Iteration:  4018charge 0 multiplicity 1
 C        -0.111264         0.336619         0.366280
 C         1.328406        -0.011573        -0.050054
 C         2.092477         0.717497        -1.218025
 C         3.387488        -0.051195        -1.164039
 C         2.850552        -1.521013        -1.442983
 C         2.186691        -1.356746        -0.080206
 O         1.521804        -2.534324         0.444650
 C         3.294288        -0.524017         0.480720
 O         2.312373         0.432572         1.107466
 H        -0.360246         0.093624         1.380809
 H        -0.352001         1.352499         0.104376
 H        -0.729115        -0.359970        -0.191041
 H         1.609731         0.615400        -2.243690
 H         2.075782         1.873279        -1.013272
 H         4.447719         0.304775        -1.291694
 H         2.114650        -1.607640        -2.281385
 H         3.568287        -2.347604        -1.249063
 H         1.759219        -2.683769         1.437414
 H         4.108233        -0.854926         1.145169
