19
Iteration:  1591charge 0 multiplicity 1
 C         0.074403         0.298708         0.600835
 C         1.464308         0.074637         0.099805
 C         2.002223         0.776795        -1.225565
 C         3.223365        -0.065938        -1.278296
 C         2.731750        -1.505022        -1.662910
 C         2.160391        -1.471239        -0.140703
 O         1.411215        -2.423965         0.608382
 C         3.244282        -0.561981         0.393939
 O         2.476898         0.325092         1.054605
 H        -0.118993        -0.434936         1.345692
 H        -0.022354         1.275857         1.038652
 H        -0.639129         0.315134        -0.276214
 H         1.514375         0.716289        -2.265930
 H         2.216962         1.802588        -0.922891
 H         4.158141         0.379120        -1.765549
 H         1.911236        -1.668912        -2.373890
 H         3.600371        -2.101774        -1.693576
 H         2.081485        -2.652096         1.346068
 H         4.208298        -0.771621         0.851683
