19
Iteration:  4407charge 0 multiplicity 1
 C        -0.015772         0.070825         0.223322
 C         1.453535         0.050799         0.050151
 C         2.136415         0.799237        -1.203608
 C         3.398703        -0.031519        -1.185475
 C         2.721826        -1.541726        -1.467274
 C         2.096259        -1.306607        -0.088898
 O         1.463632        -2.445324         0.626895
 C         3.293392        -0.489451         0.437915
 O         2.385751         0.364655         1.150467
 H        -0.381332        -0.860941         0.552161
 H        -0.324213         0.938712         0.807797
 H        -0.509478         0.350579        -0.706771
 H         1.480927         0.598944        -2.124949
 H         2.249762         1.922982        -0.994857
 H         4.194298         0.292960        -1.794869
 H         2.137946        -1.619974        -2.388672
 H         3.592389        -2.152958        -1.644369
 H         0.629827        -2.135523         1.112251
 H         4.266805        -0.830805         0.900677
