19
Iteration:  3213charge 0 multiplicity 1
 C        -0.001989         0.225846         0.410040
 C         1.408732         0.067868        -0.000090
 C         2.136694         0.777355        -1.218606
 C         3.340742        -0.089312        -1.133597
 C         2.868649        -1.479554        -1.392037
 C         2.045789        -1.425308        -0.124172
 O         1.478770        -2.538444         0.594354
 C         3.226239        -0.381090         0.363266
 O         2.324764         0.433089         1.083721
 H        -0.193216        -0.407174         1.282841
 H        -0.414286         1.206265         0.479479
 H        -0.514285        -0.384147        -0.388176
 H         1.485062         0.587589        -2.095288
 H         2.143379         1.843620        -1.073841
 H         4.274397         0.120832        -1.664941
 H         2.444014        -1.617451        -2.503501
 H         3.719510        -2.130416        -1.353830
 H         1.699025        -3.334463        -0.010965
 H         4.130149        -0.707691         0.970231
