19
Iteration:  4115
 C        -0.080841         0.161730         0.289739
 C         1.397788         0.063092        -0.001503
 C         2.141802         0.760793        -1.223612
 C         3.390173        -0.109496        -1.149916
 C         2.834932        -1.515487        -1.449883
 C         2.114540        -1.379989        -0.025913
 O         1.430557        -2.434022         0.601404
 C         3.281735        -0.415438         0.485085
 O         2.360907         0.424252         1.081661
 H        -0.476407        -0.797273         0.793341
 H        -0.442662         1.016232         0.941143
 H        -0.648387        -0.038722        -0.696021
 H         1.630462         0.549541        -2.174369
 H         2.253993         1.898511        -1.093940
 H         4.283254         0.373255        -1.589153
 H         2.243932        -1.651252        -2.386615
 H         3.750526        -2.193807        -1.336056
 H         1.472930        -3.264887         0.010126
 H         4.239043        -0.675657         0.865642
