19
Iteration:  4187
 C        -0.003441         0.314167         0.328215
 C         1.406139        -0.002301         0.000978
 C         2.083942         0.721728        -1.192332
 C         3.352424        -0.098194        -1.052203
 C         2.803181        -1.539990        -1.466766
 C         2.077325        -1.402678        -0.159756
 O         1.571178        -2.486518         0.524072
 C         3.187428        -0.482566         0.492053
 O         2.264865         0.464590         1.034882
 H        -0.464395        -0.305448         1.076113
 H        -0.116924         1.260259         0.870518
 H        -0.603829         0.283716        -0.633082
 H         1.810064         0.579890        -2.294903
 H         2.235308         1.768824        -0.843092
 H         4.380143         0.177296        -1.223146
 H         2.254324        -1.803106        -2.461829
 H         3.643850        -2.289885        -1.416497
 H         2.334749        -3.023037         0.836962
 H         4.188809        -0.583726         1.081015
