19
Iteration:  1912
 C        -0.036138         0.278197         0.476197
 C         1.381849         0.033206         0.039290
 C         1.993450         0.830337        -1.146194
 C         3.319459        -0.127249        -1.230143
 C         2.746203        -1.502439        -1.569911
 C         2.085851        -1.409910        -0.174543
 O         1.494572        -2.413714         0.632253
 C         3.321445        -0.543854         0.312759
 O         2.510499         0.329835         1.123652
 H        -0.352782        -0.343361         1.377998
 H        -0.274199         1.396114         0.610969
 H        -0.656499        -0.270622        -0.239280
 H         1.349884         0.785320        -2.095981
 H         2.196115         1.969113        -0.913989
 H         4.052299         0.295090        -1.949234
 H         2.027438        -1.387469        -2.354883
 H         3.330605        -2.372729        -1.689889
 H         2.282431        -2.574450         1.196223
 H         4.154355        -1.022266         0.816272
