19
Iteration:  4933
 C         0.003870         0.333467         0.452626
 C         1.369107         0.042948         0.053067
 C         2.149669         0.756181        -1.129744
 C         3.311029        -0.156059        -1.178488
 C         2.733796        -1.509947        -1.527347
 C         2.057870        -1.360764        -0.116801
 O         1.449568        -2.436926         0.407467
 C         3.260098        -0.536210         0.405468
 O         2.458271         0.382569         1.169163
 H        -0.189781        -0.117741         1.443101
 H        -0.193983         1.402868         0.633973
 H        -0.721899        -0.043696        -0.343765
 H         1.449451         0.732748        -2.070070
 H         2.425215         1.811891        -0.952356
 H         4.324344         0.231391        -1.559885
 H         2.055407        -1.750118        -2.293020
 H         3.472614        -2.263346        -1.580287
 H         2.039080        -3.161689         0.432323
 H         4.118914        -0.971155         0.899076
