19
Iteration:  1991
 C        -0.000544         0.264785         0.500329
 C         1.429867         0.100265         0.070826
 C         1.911707         0.708576        -1.195551
 C         3.321456        -0.138515        -1.214144
 C         2.806998        -1.539137        -1.540914
 C         2.074206        -1.380334        -0.136064
 O         1.540335        -2.456217         0.585521
 C         3.278701        -0.508817         0.326154
 O         2.501951         0.440342         1.099118
 H        -0.212413        -0.459389         1.274139
 H        -0.147598         1.284301         1.033371
 H        -0.772135         0.406745        -0.242408
 H         1.189170         0.377883        -1.855814
 H         2.097995         1.771594        -0.964848
 H         4.248196         0.295169        -1.569433
 H         2.472960        -1.719632        -2.507227
 H         3.465607        -2.341071        -1.249446
 H         0.855987        -2.803777        -0.065292
 H         4.198760        -0.803286         0.806897
