19
Iteration:  1074charge 0 multiplicity 1
 C        -0.015113         0.147421         0.505134
 C         1.415536         0.101523         0.006690
 C         2.013486         0.759606        -1.240394
 C         3.361483        -0.101335        -1.185658
 C         2.790929        -1.469945        -1.570418
 C         2.154998        -1.429222        -0.111254
 O         1.516770        -2.500806         0.572799
 C         3.257455        -0.530930         0.378247
 O         2.375743         0.445754         1.058665
 H        -0.301666        -0.589861         1.394683
 H        -0.108668         1.322586         0.612327
 H        -0.745114         0.010163        -0.313359
 H         1.495101         0.829557        -2.153726
 H         2.218611         1.820741        -0.965670
 H         4.299472         0.225828        -1.550754
 H         1.890702        -1.434325        -2.228611
 H         3.517941        -2.250828        -1.482814
 H         1.540941        -2.165080         1.461116
 H         4.103124        -0.784399         1.067929
