19
Iteration:   839
 C        -0.076604         0.209979         0.346876
 C         1.421842         0.023199         0.063449
 C         1.948369         0.760452        -1.281464
 C         3.347421        -0.034782        -1.111979
 C         2.829817        -1.547060        -1.474328
 C         2.050347        -1.389831        -0.038517
 O         1.532195        -2.438395         0.576133
 C         3.278137        -0.458637         0.355473
 O         2.494891         0.436590         1.147739
 H        -0.459470        -0.587457         1.088943
 H        -0.357641         1.233464         0.674883
 H        -0.830649        -0.123273        -0.640803
 H         1.511078         0.486422        -2.247805
 H         1.994627         1.845403        -1.310160
 H         4.252550         0.446179        -1.536119
 H         2.118325        -1.788287        -2.227859
 H         3.588654        -2.384896        -1.271806
 H         1.832961        -3.233663         0.006121
 H         4.262199        -0.781895         0.919390
