19
Iteration:  3012charge 0 multiplicity 1
 C        -0.073939         0.061160         0.473610
 C         1.387103         0.044733        -0.087111
 C         2.178907         0.822978        -1.243996
 C         3.424964        -0.179342        -1.185967
 C         2.793039        -1.475917        -1.523536
 C         2.060381        -1.385745        -0.113352
 O         1.470345        -2.458388         0.634416
 C         3.217777        -0.372022         0.450120
 O         2.374641         0.472366         1.099777
 H        -0.174244        -0.501267         1.391728
 H        -0.431294         1.080356         0.876397
 H        -0.573495        -0.101897        -0.422058
 H         1.653847         0.614527        -2.171410
 H         2.447425         1.894900        -0.955924
 H         4.355826         0.179511        -1.704691
 H         2.037945        -1.504373        -2.338593
 H         3.651733        -2.243012        -1.481424
 H         1.511352        -3.292125         0.220819
 H         4.073095        -0.699452         0.945490
