19
Iteration:  1392
 C         0.095769         0.177984         0.555790
 C         1.450552        -0.002028         0.016681
 C         2.044693         0.803930        -1.177694
 C         3.251676        -0.151207        -1.178230
 C         2.700262        -1.512879        -1.567079
 C         2.105859        -1.405873        -0.143604
 O         1.421807        -2.322452         0.583306
 C         3.256734        -0.522471         0.332074
 O         2.457105         0.434340         1.043947
 H        -0.174384        -0.594099         1.286586
 H        -0.114861         1.151522         1.011983
 H        -0.519064        -0.026247        -0.238209
 H         1.408232         0.725232        -2.062750
 H         2.171675         1.859340        -0.854701
 H         4.287714         0.051504        -1.599807
 H         2.290573        -1.690940        -2.603252
 H         3.479781        -2.289040        -1.575081
 H         2.086269        -2.870197         0.966194
 H         4.083027        -0.914183         0.914562
