19
Iteration:  3921charge 0 multiplicity 1
 C        -0.080370         0.197502         0.269155
 C         1.411584         0.041114        -0.084004
 C         2.060268         0.789159        -1.250678
 C         3.367782        -0.095583        -1.060480
 C         2.791895        -1.499853        -1.456867
 C         2.122934        -1.362770        -0.074863
 O         1.540592        -2.457207         0.561484
 C         3.266579        -0.494260         0.444033
 O         2.363523         0.352152         1.127301
 H        -0.343317        -0.787867         0.812397
 H        -0.185798         1.027124         0.930881
 H        -0.766429         0.239436        -0.556941
 H         1.640999         0.849171        -2.286648
 H         2.169582         1.891310        -1.097349
 H         4.346817         0.270813        -1.560048
 H         2.196873        -1.752337        -2.356461
 H         3.656066        -2.099936        -1.317145
 H         1.244278        -2.163911         1.475353
 H         4.221255        -0.865756         0.840141
