19
Iteration:  3729charge 0 multiplicity 1
 C        -0.075812         0.322167         0.335707
 C         1.386606         0.038237        -0.041313
 C         2.076588         0.701852        -1.164304
 C         3.376097        -0.111104        -1.097783
 C         2.892703        -1.542363        -1.469155
 C         2.184542        -1.445555        -0.111323
 O         1.510348        -2.401560         0.547152
 C         3.198617        -0.479145         0.463511
 O         2.283212         0.369728         1.032175
 H        -0.318851        -0.505088         1.040951
 H        -0.153667         1.242951         0.892296
 H        -0.707357         0.292462        -0.523969
 H         1.419542         0.674433        -2.124305
 H         1.908984         1.845207        -1.064632
 H         4.185205         0.625479        -1.374868
 H         2.302275        -1.944383        -2.346913
 H         3.885037        -2.026569        -1.446989
 H         2.161788        -2.959054         0.897228
 H         4.076519        -0.712688         1.135142
