19
Iteration:   535
 C        -0.115666         0.139024         0.379754
 C         1.382254         0.080805        -0.002533
 C         2.054137         0.819236        -1.228346
 C         3.311902        -0.087687        -1.181637
 C         2.758714        -1.507374        -1.426754
 C         2.060838        -1.368973        -0.090939
 O         1.588069        -2.525610         0.513638
 C         3.281995        -0.479531         0.444331
 O         2.465446         0.447220         1.070143
 H        -0.245291        -0.481897         1.278375
 H        -0.307965         1.202922         0.673136
 H        -0.725550         0.044594        -0.457970
 H         1.398380         0.885234        -2.131683
 H         1.918106         1.858144        -0.941307
 H         4.176870         0.204691        -1.718559
 H         2.287097        -1.710662        -2.399630
 H         3.470681        -2.335629        -1.271188
 H         2.099126        -2.759833         1.256797
 H         4.198042        -0.963391         0.981019
