19
Iteration:  2793charge 0 multiplicity 1
 C        -0.088105         0.292878         0.338566
 C         1.358936         0.055896        -0.032892
 C         2.098824         0.761204        -1.232152
 C         3.333694        -0.122311        -1.125876
 C         2.753070        -1.476590        -1.578457
 C         2.132659        -1.397757        -0.002201
 O         1.597874        -2.578790         0.563336
 C         3.238041        -0.480457         0.459309
 O         2.370157         0.451050         1.107578
 H        -0.335959        -0.486427         1.095173
 H        -0.332555         1.357848         0.682796
 H        -0.756406         0.104125        -0.490947
 H         1.600698         0.519404        -2.144685
 H         2.252343         1.839994        -0.982676
 H         4.191520         0.417313        -1.533771
 H         2.130471        -1.554907        -2.452715
 H         3.497749        -2.321625        -1.729869
 H         2.188486        -2.802447         1.312165
 H         4.082544        -0.790962         0.935697
