19
Iteration:  3294
 C        -0.072616         0.173243         0.362192
 C         1.404697         0.039862        -0.042148
 C         2.120271         0.784255        -1.143395
 C         3.372202        -0.126614        -1.167092
 C         2.814609        -1.515729        -1.521162
 C         2.111930        -1.378300        -0.103763
 O         1.529096        -2.397862         0.561588
 C         3.226523        -0.548548         0.423787
 O         2.312253         0.425220         1.057900
 H        -0.305074        -0.454039         1.224738
 H        -0.296005         1.186872         0.732547
 H        -0.802403        -0.000522        -0.394954
 H         1.499781         0.725163        -2.059024
 H         2.334411         1.777522        -0.598380
 H         4.225555         0.514683        -1.571772
 H         2.310361        -1.581739        -2.511991
 H         3.545748        -2.432618        -1.354984
 H         2.153249        -2.685874         1.249422
 H         4.070761        -0.789908         1.004920
