19
Iteration:  2821
 C        -0.004872         0.149273         0.395286
 C         1.397783         0.030999        -0.039284
 C         2.107231         0.844384        -1.169076
 C         3.338376        -0.152515        -1.136614
 C         2.735518        -1.502050        -1.511472
 C         2.102650        -1.346305        -0.062297
 O         1.583098        -2.459129         0.537617
 C         3.256047        -0.496279         0.436361
 O         2.302459         0.425328         1.026943
 H        -0.145466        -0.471108         1.300199
 H        -0.318916         1.126195         0.587635
 H        -0.643332        -0.087222        -0.525851
 H         1.664642         0.572102        -2.160503
 H         2.363345         1.845673        -0.853391
 H         4.143778         0.360472        -1.751723
 H         2.144987        -1.630091        -2.447853
 H         3.477551        -2.317200        -1.450674
 H         1.773589        -2.368685         1.533897
 H         4.109329        -0.983534         1.115630
