19
Iteration:   551
 C         0.015938         0.190632         0.324821
 C         1.442381         0.025642         0.065400
 C         1.965368         0.681209        -1.163645
 C         3.299946        -0.069590        -1.140508
 C         2.719683        -1.450947        -1.515690
 C         2.147556        -1.408846        -0.094217
 O         1.536694        -2.466611         0.544916
 C         3.285120        -0.467564         0.398467
 O         2.391015         0.452503         1.120327
 H        -0.369713        -0.554351         1.032954
 H        -0.277679         1.197572         0.603881
 H        -0.449771        -0.101138        -0.712285
 H         1.465284         0.426678        -2.115395
 H         2.285670         1.787182        -1.154225
 H         4.260892         0.422444        -1.600475
 H         1.921970        -1.507927        -2.283351
 H         3.525731        -2.172069        -1.745127
 H         2.027371        -2.749525         1.327931
 H         4.186791        -0.693457         0.851389
