19
Iteration:  2326charge 0 multiplicity 1
 C        -0.054230         0.251364         0.530764
 C         1.395346        -0.001179        -0.063578
 C         2.138175         0.747116        -1.169249
 C         3.357857        -0.118167        -1.194424
 C         2.762455        -1.455296        -1.509477
 C         2.119913        -1.438410        -0.105907
 O         1.506152        -2.501182         0.583453
 C         3.211982        -0.446674         0.387039
 O         2.363852         0.402834         1.014016
 H        -0.393990        -0.337769         1.469336
 H        -0.035538         1.386757         0.749122
 H        -0.839166         0.228085        -0.228191
 H         1.624962         0.691813        -2.162710
 H         2.387214         1.829269        -0.941290
 H         4.222060         0.405161        -1.771548
 H         2.075130        -1.615631        -2.381747
 H         3.365503        -2.368235        -1.505809
 H         2.260998        -2.751865         1.209110
 H         4.163925        -0.530404         0.838408
