19
Iteration:   561charge 0 multiplicity 1
 C        -0.011648         0.154428         0.289607
 C         1.470095         0.049369         0.109079
 C         2.021226         0.686139        -1.174971
 C         3.313221        -0.045976        -1.143256
 C         2.733690        -1.500658        -1.573765
 C         2.183283        -1.456469        -0.119146
 O         1.497254        -2.442610         0.591426
 C         3.353084        -0.430099         0.390771
 O         2.338452         0.422043         1.133568
 H        -0.386408        -0.382449         1.139340
 H        -0.112179         1.214504         0.542377
 H        -0.617453         0.075912        -0.675660
 H         1.237929         0.475503        -1.909799
 H         1.851564         1.866382        -1.023647
 H         4.293189         0.486998        -1.609983
 H         1.929223        -1.425212        -2.367449
 H         3.402923        -2.290434        -1.880550
 H         1.962010        -2.719891         1.341320
 H         4.248311        -0.621415         0.848505
