19
Iteration:  2281charge 0 multiplicity 1
 C        -0.054961         0.274825         0.375381
 C         1.479189         0.068842         0.127581
 C         1.975482         0.688145        -1.208121
 C         3.301201        -0.080974        -1.226833
 C         2.775423        -1.496576        -1.479806
 C         2.017155        -1.338540        -0.062034
 O         1.591039        -2.493147         0.550033
 C         3.365432        -0.509552         0.344994
 O         2.453549         0.378831         1.136550
 H        -0.150818        -0.181370         1.450724
 H        -0.400504         1.342843         0.347492
 H        -0.713303        -0.335280        -0.329788
 H         1.353364         0.592451        -2.145238
 H         2.059486         1.778531        -1.200229
 H         4.154175         0.269883        -1.784084
 H         2.193408        -1.516780        -2.400258
 H         3.608674        -2.239508        -1.514292
 H         0.570604        -2.478378         0.657634
 H         4.249624        -0.845076         0.825876
