19
Iteration:  1419charge 0 multiplicity 1
 C        -0.035229         0.312290         0.535674
 C         1.435708         0.103791         0.090518
 C         2.032775         0.733609        -1.235185
 C         3.304958        -0.036970        -1.291554
 C         2.729337        -1.503917        -1.504043
 C         2.137683        -1.377947        -0.060970
 O         1.433773        -2.449896         0.529901
 C         3.298816        -0.521872         0.265017
 O         2.522665         0.329062         1.141984
 H        -0.207852        -0.574678         1.188073
 H        -0.415941         1.317317         0.853835
 H        -0.745129        -0.103455        -0.340267
 H         1.371806         0.252491        -1.973794
 H         2.022314         1.812840        -1.170524
 H         4.178394         0.323348        -1.797568
 H         2.274893        -1.716649        -2.495904
 H         3.383554        -2.403959        -1.458462
 H         1.820584        -2.606623         1.370496
 H         4.103571        -1.034997         0.819717
