19
Iteration:  1421
 C        -0.028841         0.324607         0.540926
 C         1.445671         0.083612         0.096662
 C         2.025490         0.730891        -1.230679
 C         3.300817        -0.052166        -1.286554
 C         2.714861        -1.502165        -1.517157
 C         2.126953        -1.388922        -0.067225
 O         1.450013        -2.449875         0.517657
 C         3.311126        -0.507618         0.268877
 O         2.512138         0.337154         1.137338
 H        -0.227946        -0.585213         1.178337
 H        -0.436127         1.351010         0.781717
 H        -0.678183        -0.061938        -0.351932
 H         1.328225         0.252384        -1.935653
 H         2.022211         1.873304        -1.160415
 H         4.169546         0.225778        -1.728050
 H         2.265252        -1.656922        -2.425603
 H         3.470599        -2.364057        -1.412634
 H         1.764603        -2.606272         1.436204
 H         4.112316        -1.044019         0.817475
