19
Iteration:   739charge 0 multiplicity 1
 C        -0.102490         0.129634         0.323227
 C         1.392783         0.095658        -0.016890
 C         2.019191         0.737472        -1.132847
 C         3.313432        -0.072952        -1.164374
 C         2.720550        -1.504536        -1.444547
 C         2.155480        -1.356486        -0.073528
 O         1.537294        -2.437720         0.565063
 C         3.315868        -0.469970         0.391744
 O         2.424206         0.401456         1.087862
 H        -0.351119        -0.444082         1.235743
 H        -0.365882         1.119870         0.421571
 H        -0.751624         0.001143        -0.568574
 H         1.552574         0.823219        -2.064600
 H         2.279885         1.770358        -0.870064
 H         4.186381         0.217561        -1.652876
 H         2.137391        -1.638224        -2.302224
 H         3.525139        -2.271240        -1.490199
 H         2.229745        -3.024582         0.870360
 H         4.326685        -0.841418         0.724476
