19
Iteration:  3377
 C        -0.065993         0.363001         0.406662
 C         1.413375         0.077533        -0.026676
 C         2.038586         0.759150        -1.227129
 C         3.360686        -0.086827        -1.152564
 C         2.856616        -1.476470        -1.483487
 C         2.133289        -1.430456        -0.110704
 O         1.618409        -2.624464         0.565208
 C         3.253358        -0.485080         0.444943
 O         2.333717         0.383928         1.081028
 H        -0.449077        -0.353630         1.265825
 H        -0.175233         1.393008         0.749579
 H        -0.860576         0.112858        -0.366098
 H         1.566959         0.819149        -2.239723
 H         2.091718         1.792432        -0.946430
 H         4.191151         0.359069        -1.787164
 H         2.144399        -1.689684        -2.388311
 H         3.615213        -2.197225        -1.560017
 H         0.723748        -2.432645         0.800711
 H         3.983104        -0.779044         1.259639
