19
Iteration:  2105
 C         0.013218         0.245072         0.456944
 C         1.465153         0.091275         0.029008
 C         2.038963         0.814736        -1.141232
 C         3.327539        -0.143198        -1.205194
 C         2.682259        -1.558866        -1.626585
 C         2.128166        -1.435959        -0.100977
 O         1.503080        -2.450155         0.588809
 C         3.309625        -0.511827         0.369021
 O         2.379603         0.429427         1.085687
 H        -0.273474        -0.324953         1.359490
 H        -0.172086         1.297486         0.371481
 H        -0.612917        -0.281118        -0.361988
 H         1.571575         0.666787        -2.135314
 H         2.191963         1.746822        -0.655436
 H         4.145881         0.238667        -1.788499
 H         1.793097        -1.551677        -2.359282
 H         3.555005        -2.235007        -1.797527
 H         1.872466        -2.662866         1.512838
 H         4.160050        -0.741956         1.028525
