19
Iteration:  3987
 C        -0.000050         0.266564         0.362627
 C         1.397910         0.084136        -0.013890
 C         2.118469         0.774794        -1.231544
 C         3.327164        -0.114465        -1.108931
 C         2.832633        -1.500491        -1.468367
 C         2.090678        -1.399574        -0.096129
 O         1.615339        -2.590023         0.497172
 C         3.233020        -0.560169         0.474152
 O         2.276497         0.511401         1.070351
 H        -0.219732        -0.357079         1.240715
 H        -0.395612         1.212793         0.480986
 H        -0.537472        -0.017364        -0.477273
 H         1.495275         0.807724        -2.127364
 H         2.182904         1.851213        -1.084802
 H         4.389816         0.233700        -1.470315
 H         2.203149        -1.806212        -2.374664
 H         3.561016        -2.209627        -1.263528
 H         0.947749        -2.389500         1.131487
 H         4.043253        -0.845072         1.185352
