19
Iteration:  2799charge 0 multiplicity 1
 C        -0.056287         0.248173         0.346590
 C         1.402476         0.049270        -0.029560
 C         2.109461         0.743994        -1.243011
 C         3.370790        -0.094401        -1.130004
 C         2.726651        -1.486601        -1.555162
 C         2.065372        -1.411053        -0.060997
 O         1.613067        -2.569112         0.568423
 C         3.199079        -0.456752         0.446626
 O         2.351342         0.470419         1.108676
 H        -0.207051        -0.388853         1.238812
 H        -0.325794         1.208699         0.696109
 H        -0.751455         0.177524        -0.565917
 H         1.497281         0.587652        -2.208348
 H         2.207014         1.735762        -0.818955
 H         4.450798         0.246838        -1.288094
 H         1.994087        -1.459861        -2.411102
 H         3.427606        -2.313275        -1.684374
 H         2.123243        -2.772347         1.330366
 H         4.274740        -0.721473         0.921932
