19
Iteration:   676charge 0 multiplicity 1
 C        -0.172240         0.171538         0.455045
 C         1.447987         0.072609         0.055106
 C         2.016524         0.747238        -1.194415
 C         3.335832        -0.096043        -1.169624
 C         2.864248        -1.505125        -1.482864
 C         2.145226        -1.362636        -0.142500
 O         1.518040        -2.420821         0.583730
 C         3.284389        -0.532964         0.319915
 O         2.390177         0.443732         1.116441
 H        -0.628535        -0.406625         1.338024
 H        -0.339268         1.332429         0.595047
 H        -0.675077        -0.020257        -0.557281
 H         1.340864         0.511861        -2.156413
 H         2.088074         1.860874        -1.185378
 H         4.231239         0.323325        -1.629303
 H         2.445945        -1.964672        -2.409430
 H         3.851975        -2.053308        -1.138774
 H         1.821935        -3.205606         0.199363
 H         4.200974        -0.839701         0.999729
