19
Iteration:   669charge 0 multiplicity 1
 C        -0.119818         0.212286         0.422753
 C         1.384606         0.040207         0.083126
 C         2.023829         0.731586        -1.178388
 C         3.291011        -0.120025        -1.199874
 C         2.937457        -1.508111        -1.491227
 C         2.129040        -1.403231        -0.108230
 O         1.470681        -2.444757         0.569420
 C         3.320020        -0.450605         0.334848
 O         2.402746         0.451970         1.135269
 H        -0.386827        -0.407437         1.229295
 H        -0.455974         1.273796         0.578774
 H        -0.670485        -0.011602        -0.449577
 H         1.307328         0.563810        -2.024004
 H         2.137092         1.841169        -1.243029
 H         4.156204         0.516690        -1.656152
 H         2.500846        -1.922022        -2.471304
 H         3.753301        -2.144208        -1.293818
 H         1.799939        -3.290899         0.229881
 H         4.222461        -0.721050         0.817538
