19
Iteration:  4277charge 0 multiplicity 1
 C        -0.101733         0.145922         0.351410
 C         1.356220         0.176315        -0.026370
 C         2.123849         0.816427        -1.189298
 C         3.364388        -0.171286        -1.086946
 C         2.886272        -1.535577        -1.446491
 C         2.166010        -1.420219        -0.110180
 O         1.451286        -2.397746         0.529893
 C         3.217515        -0.549611         0.515611
 O         2.359709         0.460558         1.044836
 H        -0.171014        -0.054611         1.426331
 H        -0.598097         1.161339         0.243428
 H        -0.466359        -0.749734        -0.239899
 H         1.754976         0.667671        -2.239369
 H         2.211674         1.921796        -1.044155
 H         4.267513         0.208572        -1.460606
 H         2.102211        -1.485836        -2.234744
 H         3.757425        -2.294745        -1.672860
 H         1.888018        -3.158497         0.216949
 H         4.055951        -0.921972         1.060849
