19
Iteration:  1688charge 0 multiplicity 1
 C         0.019470         0.288692         0.587750
 C         1.429716         0.057987         0.088376
 C         1.977382         0.750183        -1.133543
 C         3.302080        -0.087884        -1.260970
 C         2.676766        -1.540788        -1.616321
 C         2.112300        -1.436692        -0.128704
 O         1.522179        -2.456139         0.487577
 C         3.316165        -0.563291         0.289641
 O         2.529146         0.371597         1.129941
 H        -0.070315        -0.058265         1.623597
 H        -0.229116         1.379201         0.603670
 H        -0.784223        -0.062413        -0.165590
 H         1.244653         0.758427        -2.035382
 H         2.323750         1.800436        -0.951132
 H         4.107114         0.330848        -1.947454
 H         2.032414        -1.508183        -2.458747
 H         3.279728        -2.414649        -1.457826
 H         1.100766        -2.096277         1.331924
 H         4.111382        -0.570461         0.996492
