19
Iteration:  1193
 C        -0.079512         0.218662         0.523859
 C         1.361662         0.128582         0.025939
 C         2.098150         0.791906        -1.242090
 C         3.360953        -0.116730        -1.263529
 C         2.748553        -1.478962        -1.573597
 C         2.087748        -1.405587        -0.105936
 O         1.557064        -2.525071         0.624471
 C         3.231071        -0.531893         0.348144
 O         2.446137         0.376642         1.082577
 H        -0.332649        -0.459960         1.375136
 H        -0.180558         1.294149         0.792130
 H        -0.717482         0.093584        -0.294362
 H         1.684274         0.782834        -2.235381
 H         2.199072         1.884341        -0.977400
 H         4.161644         0.374554        -1.733560
 H         1.887974        -1.495172        -2.247703
 H         3.634444        -2.195802        -1.505170
 H         1.649896        -2.344038         1.615343
 H         4.194353        -1.003409         0.681148
