19
Iteration:  4716charge 0 multiplicity 1
 C        -0.119940         0.155842         0.330760
 C         1.466332         0.043500         0.088151
 C         2.152563         0.828218        -1.169512
 C         3.368426        -0.061459        -1.121096
 C         2.768108        -1.500896        -1.555340
 C         2.105644        -1.364458        -0.088592
 O         1.282516        -2.368965         0.525560
 C         3.321217        -0.562261         0.423875
 O         2.526153         0.401617         1.098140
 H        -0.369638        -0.375771         1.261546
 H        -0.550201         1.161516         0.337610
 H        -0.571519        -0.538844        -0.402523
 H         1.658535         0.561405        -2.083147
 H         2.168787         1.859408        -0.817411
 H         4.303363         0.249047        -1.656348
 H         2.119145        -1.530782        -2.454097
 H         3.494809        -2.362101        -1.506370
 H         1.926212        -3.117308         0.805983
 H         4.065941        -1.045615         0.978866
