19
Iteration:  4547charge 0 multiplicity 1
 C        -0.015538         0.133627         0.305899
 C         1.426737         0.099519         0.057646
 C         2.151876         0.738630        -1.144311
 C         3.399069        -0.164381        -1.143553
 C         2.741674        -1.479340        -1.554251
 C         2.109528        -1.378642        -0.125684
 O         1.402896        -2.369503         0.587884
 C         3.292891        -0.406927         0.450493
 O         2.331588         0.400411         1.146044
 H        -0.139004        -0.348664         1.263767
 H        -0.494315         1.130831         0.219647
 H        -0.459356        -0.556658        -0.465705
 H         1.727816         0.799509        -2.113025
 H         2.484543         1.662361        -0.831031
 H         4.224172         0.151195        -1.742920
 H         2.164665        -1.592567        -2.512187
 H         3.376442        -2.337637        -1.600436
 H         1.725744        -3.295796         0.356615
 H         4.289345        -0.771569         0.878579
