19
Iteration:     6
 C        -0.073941         0.153040         0.332209
 C         1.399964         0.065085         0.001186
 C         2.044555         0.734960        -1.209223
 C         3.385266        -0.088953        -1.087862
 C         2.807332        -1.492918        -1.467656
 C         2.069844        -1.375728        -0.085693
 O         1.630978        -2.526100         0.503441
 C         3.245183        -0.425159         0.430736
 O         2.328170         0.435019         1.103732
 H        -0.356517        -0.503643         1.187680
 H        -0.107444         1.229520         0.644906
 H        -0.725664        -0.210004        -0.482626
 H         1.508848         0.548361        -2.195370
 H         2.196695         1.849227        -1.164926
 H         4.218883         0.425918        -1.675052
 H         2.211746        -1.682138        -2.395742
 H         3.557446        -2.306614        -1.482638
 H         1.309733        -2.177274         1.398595
 H         4.237419        -0.727748         0.826683
