19
Iteration:  4712
 C        -0.083189         0.161801         0.336482
 C         1.439609         0.041698         0.079350
 C         2.141829         0.800120        -1.125016
 C         3.394800        -0.058601        -1.137015
 C         2.764704        -1.488221        -1.522554
 C         2.077046        -1.363034        -0.096031
 O         1.316697        -2.379864         0.549403
 C         3.313473        -0.561341         0.409604
 O         2.497952         0.393592         1.078822
 H        -0.444121        -0.369327         1.278518
 H        -0.550825         1.202109         0.323197
 H        -0.605862        -0.376475        -0.463120
 H         1.655265         0.635719        -2.095422
 H         2.390149         1.848703        -0.935089
 H         4.262218         0.311769        -1.730254
 H         2.181482        -1.514718        -2.601038
 H         3.538981        -2.262849        -1.557873
 H         1.738207        -3.193995         0.740116
 H         4.152784        -1.047333         0.997453
