19
Iteration:  4197charge 0 multiplicity 1
 C        -0.012270         0.272817         0.264559
 C         1.396466         0.050567         0.024888
 C         2.087151         0.701717        -1.145822
 C         3.380761        -0.118997        -1.050251
 C         2.820613        -1.499527        -1.452246
 C         2.033515        -1.417754        -0.159745
 O         1.533133        -2.509157         0.556430
 C         3.235710        -0.433892         0.406999
 O         2.303424         0.449061         1.073338
 H        -0.230145        -0.498894         1.001868
 H        -0.105021         1.330868         0.485604
 H        -0.667063         0.107665        -0.623665
 H         1.503862         0.739931        -2.194526
 H         2.314367         1.775961        -0.891622
 H         4.247242         0.474922        -1.455536
 H         2.296725        -1.580155        -2.528517
 H         3.554267        -2.322260        -1.247694
 H         2.207720        -2.997962         0.989785
 H         4.115559        -0.892864         1.068805
