19
Iteration:  4757
 C        -0.000928         0.170201         0.454756
 C         1.440797         0.089076         0.030340
 C         2.146915         0.816911        -1.140641
 C         3.439872        -0.128179        -1.218745
 C         2.750060        -1.459391        -1.485284
 C         2.066987        -1.385853        -0.190926
 O         1.344166        -2.472317         0.444682
 C         3.325435        -0.572711         0.446898
 O         2.377682         0.403154         1.104578
 H        -0.141956         0.035498         1.577824
 H        -0.460727         1.186847         0.192957
 H        -0.626096        -0.517569        -0.093459
 H         1.631216         0.822050        -2.088535
 H         2.318150         1.838565        -0.854790
 H         4.464474         0.244980        -1.528486
 H         1.974881        -1.729993        -2.337329
 H         3.539794        -2.216330        -1.489457
 H         1.425776        -2.308547         1.375709
 H         4.225583        -0.777922         1.032509
