19
Iteration:  1157
 C        -0.011140         0.333440         0.475012
 C         1.403513        -0.008871         0.013270
 C         2.035217         0.716233        -1.188633
 C         3.279620        -0.072449        -1.222398
 C         2.710666        -1.489048        -1.478805
 C         2.120796        -1.381189        -0.075263
 O         1.560169        -2.478141         0.564187
 C         3.293898        -0.512821         0.371850
 O         2.404014         0.409600         1.098854
 H        -0.449327        -0.077643         1.311586
 H        -0.109815         1.379633         0.523653
 H        -0.618508         0.064420        -0.418488
 H         1.386965         0.604629        -2.135526
 H         2.198166         1.753293        -0.871486
 H         4.204611         0.227970        -1.770140
 H         2.004353        -1.766683        -2.229192
 H         3.444157        -2.262873        -1.759911
 H         2.259310        -3.184436         0.521873
 H         4.195078        -0.828845         0.824736
