19
Iteration:  2952
 C        -0.029776         0.312784         0.337769
 C         1.363403         0.030164         0.060861
 C         2.026219         0.693364        -1.181214
 C         3.353519        -0.084989        -1.165238
 C         2.878991        -1.468534        -1.503202
 C         2.091955        -1.379538        -0.099565
 O         1.485530        -2.476897         0.629469
 C         3.317857        -0.422519         0.332336
 O         2.366940         0.303383         1.122687
 H        -0.550425        -0.441903         0.966204
 H        -0.121648         1.339817         0.557852
 H        -0.614321         0.098008        -0.646046
 H         1.378691         0.423365        -2.075833
 H         2.011124         1.768986        -1.240559
 H         4.122833         0.387818        -1.779189
 H         2.134385        -1.372278        -2.333932
 H         3.700160        -2.111259        -1.830017
 H         1.951910        -2.855596         1.350765
 H         4.254599        -0.798460         0.963222
