19
Iteration:  4014charge 0 multiplicity 1
 C        -0.089161         0.316304         0.373051
 C         1.326728         0.017944        -0.036723
 C         2.116060         0.722444        -1.213613
 C         3.404239        -0.085998        -1.103804
 C         2.858418        -1.535038        -1.481438
 C         2.149127        -1.367357        -0.080938
 O         1.541880        -2.556004         0.448335
 C         3.260570        -0.464756         0.455680
 O         2.322477         0.434517         1.099519
 H        -0.286453         0.060296         1.444387
 H        -0.400343         1.425507         0.117147
 H        -0.866899        -0.342172        -0.281937
 H         1.550550         0.701361        -2.160022
 H         2.122825         1.829130        -1.120872
 H         4.330562         0.347145        -1.365926
 H         2.079629        -1.638145        -2.227591
 H         3.606440        -2.417633        -1.324795
 H         1.639401        -2.655421         1.376264
 H         4.019147        -0.777625         1.164113
