19
Iteration:  4232charge 0 multiplicity 1
 C        -0.039377         0.107361         0.223074
 C         1.447921         0.048880         0.012576
 C         2.102585         0.797865        -1.209456
 C         3.304763        -0.065330        -1.125073
 C         2.798230        -1.512682        -1.491502
 C         2.243022        -1.433466        -0.094953
 O         1.398976        -2.279150         0.542096
 C         3.289652        -0.507746         0.485294
 O         2.345035         0.334936         1.160182
 H        -0.402684        -0.063187         1.207010
 H        -0.441562         1.156259         0.090724
 H        -0.463966        -0.648586        -0.540375
 H         1.269941         0.750385        -1.989887
 H         2.426685         1.843676        -0.968061
 H         4.110878         0.412983        -1.633417
 H         2.126400        -1.688189        -2.397364
 H         3.580327        -2.381279        -1.488725
 H         1.898813        -2.904872         1.050603
 H         4.160715        -0.748904         1.176634
