19
Iteration:   691charge 0 multiplicity 1
 C        -0.051297         0.179281         0.396044
 C         1.339821         0.029498         0.016196
 C         2.023643         0.764068        -1.216952
 C         3.357000        -0.047281        -1.132536
 C         2.811789        -1.540765        -1.451955
 C         2.086612        -1.350445        -0.135189
 O         1.600342        -2.378665         0.601056
 C         3.242789        -0.502975         0.442717
 O         2.397684         0.382941         1.049496
 H        -0.133204        -0.503453         1.213694
 H        -0.395861         1.214221         0.708497
 H        -0.720647        -0.067189        -0.389373
 H         1.501878         0.637644        -2.228180
 H         2.070872         1.887539        -1.062439
 H         4.342313         0.340457        -1.631978
 H         2.158789        -1.574406        -2.399810
 H         3.464485        -2.377000        -1.469372
 H         1.904979        -3.232961         0.232356
 H         4.048879        -0.928821         0.944402
