19
Iteration:  3485charge 0 multiplicity 1
 C        -0.111965         0.145503         0.395383
 C         1.433195         0.084740        -0.063046
 C         2.110261         0.856684        -1.284083
 C         3.325234        -0.152976        -1.129237
 C         2.848367        -1.492861        -1.512028
 C         2.164676        -1.400990        -0.171952
 O         1.448661        -2.417633         0.541447
 C         3.218911        -0.518888         0.503001
 O         2.398491         0.400016         1.147913
 H        -0.060976        -0.558434         1.166012
 H        -0.550816         1.037144         0.704794
 H        -0.568630        -0.208470        -0.536615
 H         1.583793         0.540297        -2.260848
 H         2.282953         1.859766        -0.883465
 H         4.310597         0.294189        -1.494514
 H         2.005748        -1.447013        -2.225708
 H         3.463430        -2.350541        -1.477038
 H         1.835906        -2.545316         1.473225
 H         4.210436        -0.756878         0.984232
