19
Iteration:  2550
 C        -0.065923         0.176506         0.415829
 C         1.375725        -0.005708         0.006823
 C         2.085010         0.742727        -1.210947
 C         3.287238        -0.114597        -1.199895
 C         2.873827        -1.560239        -1.470236
 C         2.085916        -1.363299        -0.161071
 O         1.576533        -2.404697         0.610357
 C         3.340028        -0.462849         0.438134
 O         2.346639         0.424171         1.062523
 H        -0.374372        -0.622147         1.105545
 H        -0.068741         1.029768         1.034932
 H        -0.869677         0.138270        -0.434234
 H         1.555788         0.750172        -2.196848
 H         2.197377         1.784760        -0.954914
 H         3.996782         0.405135        -1.836993
 H         2.374110        -1.681669        -2.416901
 H         3.757363        -2.252482        -1.352083
 H         0.632433        -2.113280         0.707773
 H         4.186401        -0.867614         1.094979
