19
Iteration:  2484charge 0 multiplicity 1
 C        -0.057582         0.266988         0.335469
 C         1.439131         0.028594         0.068508
 C         2.019415         0.762246        -1.147013
 C         3.282662        -0.123437        -1.129385
 C         2.751194        -1.545007        -1.505032
 C         2.118241        -1.369474        -0.074166
 O         1.530742        -2.464934         0.557247
 C         3.405779        -0.436969         0.371708
 O         2.367067         0.432952         1.104180
 H        -0.469565         0.062482         1.307472
 H        -0.300027         1.285781         0.054501
 H        -0.663038        -0.434652        -0.432531
 H         1.509510         0.392985        -2.067410
 H         2.031710         1.844833        -1.076139
 H         4.086104         0.295634        -1.609195
 H         2.080574        -1.629497        -2.359627
 H         3.436799        -2.447806        -1.461416
 H         1.952517        -3.371080         0.442662
 H         4.399346        -0.641489         0.925799
