19
Iteration:  2887
 C        -0.059989         0.249267         0.458178
 C         1.395116         0.036578        -0.002131
 C         2.031743         0.765105        -1.255897
 C         3.313541        -0.086187        -1.124644
 C         2.795247        -1.544785        -1.495285
 C         2.156752        -1.378424        -0.061254
 O         1.578155        -2.575633         0.492827
 C         3.301186        -0.432866         0.446478
 O         2.381357         0.474087         1.097885
 H        -0.369922        -0.201900         1.409263
 H        -0.195595         1.252302         0.320633
 H        -0.718061        -0.175137        -0.371222
 H         1.617418         0.362909        -2.192161
 H         2.183443         1.813838        -1.122502
 H         4.268358         0.214040        -1.610608
 H         2.110113        -1.540067        -2.352496
 H         3.488950        -2.295908        -1.842538
 H         0.804025        -2.381926         1.024657
 H         4.196570        -0.893552         1.043148
