19
Iteration:  1620
 C        -0.015935         0.364952         0.525146
 C         1.431488         0.033831         0.147145
 C         1.989252         0.758689        -1.175150
 C         3.257163        -0.120193        -1.226598
 C         2.647767        -1.532932        -1.556224
 C         2.047973        -1.373671        -0.197898
 O         1.593429        -2.492142         0.530773
 C         3.306546        -0.518684         0.295998
 O         2.496309         0.281215         1.095358
 H        -0.358422        -0.064447         1.518285
 H         0.097049         1.461599         0.878002
 H        -0.652098         0.304281        -0.354488
 H         1.543497         0.959694        -2.164157
 H         2.233061         1.863975        -0.915811
 H         4.235582         0.312434        -1.704894
 H         1.913533        -1.687757        -2.346589
 H         3.442583        -2.354517        -1.467291
 H         1.777562        -2.126160         1.437749
 H         4.295332        -0.817654         0.686588
