19
Iteration:  4636
 C        -0.020764         0.461522         0.329201
 C         1.411067         0.028748         0.029574
 C         2.039381         0.706266        -1.127485
 C         3.319876        -0.099335        -1.070195
 C         2.833705        -1.513577        -1.469865
 C         2.073266        -1.406132        -0.177365
 O         1.699669        -2.619616         0.493585
 C         3.145572        -0.569871         0.433564
 O         2.394947         0.483625         1.081655
 H        -0.855744        -0.135579         0.754312
 H         0.132115         1.268354         1.131406
 H        -0.473590         1.101718        -0.417393
 H         1.520028         0.567464        -2.019978
 H         1.995407         1.696311        -0.935428
 H         4.194827         0.337221        -1.587334
 H         2.180939        -1.847255        -2.357623
 H         3.356300        -2.415680        -1.260537
 H         0.727066        -2.938678         0.392271
 H         4.030275        -0.919786         1.066744
