19
Iteration:  3618charge 0 multiplicity 1
 C        -0.012614         0.154446         0.336015
 C         1.405582         0.044565        -0.047231
 C         2.119503         0.754094        -1.218825
 C         3.408302        -0.088395        -1.098035
 C         2.806071        -1.505267        -1.451984
 C         2.087748        -1.379515        -0.180386
 O         1.578483        -2.392061         0.614309
 C         3.200889        -0.526720         0.455049
 O         2.329828         0.408227         1.122652
 H        -0.273318        -0.234530         1.341714
 H        -0.236651         1.150477         0.315031
 H        -0.671001        -0.399399        -0.224654
 H         1.593159         0.589814        -2.264441
 H         1.926216         1.799742        -0.836402
 H         4.228969         0.465988        -1.640340
 H         2.263063        -1.669777        -2.442466
 H         3.604293        -2.187471        -1.351592
 H         0.684851        -2.587098         0.139832
 H         4.102701        -0.788907         0.983791
