19
Iteration:  3947
 C        -0.040925         0.203105         0.258798
 C         1.468814         0.012256         0.097536
 C         2.020888         0.711593        -1.159487
 C         3.368393        -0.075459        -1.187005
 C         2.875031        -1.514565        -1.580914
 C         2.160058        -1.373966        -0.074021
 O         1.496073        -2.424721         0.601896
 C         3.269616        -0.474012         0.460356
 O         2.310661         0.384180         1.097376
 H        -0.643409        -0.665247         0.721815
 H        -0.100928         1.141395         0.915694
 H        -0.530367         0.229359        -0.797932
 H         1.507822         0.565484        -2.137689
 H         2.204134         1.753747        -0.940212
 H         4.280587         0.427583        -1.555739
 H         2.208620        -1.727844        -2.468196
 H         3.807013        -2.155786        -1.513826
 H         0.684378        -2.084559         1.144043
 H         4.149025        -0.871107         1.004590
