19
Iteration:  2260
 C        -0.040295         0.232205         0.437450
 C         1.377952         0.034558         0.044773
 C         2.021003         0.742400        -1.118261
 C         3.311763        -0.059001        -1.169688
 C         2.726626        -1.556584        -1.556608
 C         2.196443        -1.432746        -0.156859
 O         1.550569        -2.431355         0.639937
 C         3.264505        -0.515301         0.409622
 O         2.481374         0.425915         1.060442
 H        -0.366873        -0.108475         1.486039
 H        -0.134403         1.309565         0.208567
 H        -0.662875        -0.242660        -0.330012
 H         1.441650         0.726657        -2.053538
 H         2.064393         1.822335        -1.061683
 H         4.238879         0.292044        -1.612499
 H         1.946166        -1.586576        -2.322203
 H         3.535224        -2.306738        -1.679620
 H         0.861026        -2.690715         0.011762
 H         4.213212        -0.642175         0.812441
