19
Iteration:  4640
 C        -0.030163         0.470710         0.355738
 C         1.391284         0.032583         0.027852
 C         2.048168         0.702796        -1.141490
 C         3.338894        -0.104942        -1.038926
 C         2.812017        -1.537744        -1.507534
 C         2.039139        -1.420645        -0.184977
 O         1.702514        -2.635267         0.516834
 C         3.172306        -0.556097         0.409346
 O         2.390104         0.506931         1.097994
 H        -0.853056        -0.142630         0.735915
 H         0.185663         1.248371         1.052532
 H        -0.375015         1.076204        -0.485321
 H         1.510922         0.513874        -2.119872
 H         2.039885         1.813868        -0.793622
 H         4.180416         0.417244        -1.563086
 H         2.342207        -1.744610        -2.396456
 H         3.407955        -2.456704        -1.290489
 H         0.853367        -2.972943         0.285383
 H         3.909930        -0.910373         1.039796
