19
Iteration:   289
 C        -0.097465         0.267350         0.407023
 C         1.410839        -0.008590        -0.011595
 C         1.961966         0.820036        -1.127424
 C         3.354622        -0.032730        -1.186031
 C         2.869423        -1.607490        -1.546417
 C         2.242098        -1.404705        -0.132391
 O         1.657147        -2.397004         0.636727
 C         3.275449        -0.480149         0.357659
 O         2.261964         0.289026         1.086738
 H        -0.431065        -0.230967         1.312077
 H        -0.333342         1.331808         0.539840
 H        -0.856152        -0.101555        -0.353004
 H         1.400824         0.937038        -2.061424
 H         2.361079         1.743053        -0.777021
 H         4.226755         0.526663        -1.838964
 H         2.203981        -1.861668        -2.429977
 H         3.643374        -2.381475        -1.339629
 H         0.664855        -2.367743         0.627436
 H         4.153238        -0.683477         0.957866
