19
Iteration:  4675charge 0 multiplicity 1
 C        -0.039257         0.401394         0.399996
 C         1.362060         0.118993        -0.062797
 C         2.115764         0.826729        -1.205200
 C         3.387247        -0.051588        -1.146992
 C         2.705106        -1.605275        -1.491510
 C         2.171237        -1.494282        -0.165915
 O         1.589164        -2.466967         0.596248
 C         3.240967        -0.554506         0.484394
 O         2.290072         0.312320         1.153135
 H        -0.472391        -0.296241         1.076620
 H         0.183900         1.348570         0.856955
 H        -0.633146         0.535741        -0.558247
 H         1.597984         0.672128        -2.242194
 H         2.403360         1.989408        -1.137978
 H         4.227249         0.402278        -1.628796
 H         2.025735        -1.669878        -2.296854
 H         3.615906        -2.242338        -1.544036
 H         1.512294        -3.206229        -0.013269
 H         4.085118        -0.926501         1.104083
