19
Iteration:    72
 C        -0.040555         0.231106         0.396334
 C         1.370708        -0.018307         0.030885
 C         1.992668         0.686007        -1.229867
 C         3.368094        -0.011374        -1.199815
 C         3.006554        -1.433985        -1.487399
 C         2.168964        -1.408908        -0.179889
 O         1.534333        -2.428688         0.676136
 C         3.246025        -0.448565         0.352230
 O         2.281055         0.263895         1.138014
 H        -0.447937        -0.092980         1.362926
 H        -0.171974         1.347086         0.306372
 H        -0.709963        -0.262022        -0.394207
 H         1.364125         0.590006        -2.200035
 H         2.056622         1.797015        -1.034570
 H         4.271830         0.514710        -1.565496
 H         2.498003        -1.625818        -2.445439
 H         3.877742        -2.139486        -1.453838
 H         0.600448        -2.236629         0.634170
 H         4.202831        -0.581846         0.921418
