19
Iteration:  2830charge 0 multiplicity 1
 C        -0.101732         0.155231         0.367931
 C         1.391593         0.095408        -0.056999
 C         2.106081         0.755064        -1.183585
 C         3.311276        -0.080788        -1.211762
 C         2.794660        -1.543622        -1.513110
 C         2.133454        -1.362349        -0.115823
 O         1.559608        -2.429745         0.568146
 C         3.269981        -0.521426         0.456685
 O         2.387592         0.404903         1.097241
 H        -0.216909        -0.463636         1.250965
 H        -0.423462         1.140623         0.728483
 H        -0.804915        -0.329725        -0.337286
 H         1.550960         0.963783        -2.109882
 H         2.225851         1.810722        -0.928872
 H         4.310731         0.258952        -1.494704
 H         2.088210        -1.665789        -2.388541
 H         3.629527        -2.187403        -1.459263
 H         1.287152        -2.463738         1.528335
 H         4.270599        -0.802033         0.978233
