19
Iteration:  2309
 C        -0.028280         0.310499         0.468001
 C         1.396616         0.055388         0.020293
 C         1.991078         0.785885        -1.194177
 C         3.301026        -0.132327        -1.171027
 C         2.777064        -1.569379        -1.518450
 C         2.138602        -1.410374        -0.089542
 O         1.566249        -2.512694         0.504520
 C         3.314054        -0.529211         0.395146
 O         2.372424         0.446146         1.039240
 H        -0.043283        -0.276617         1.329742
 H        -0.276979         1.331410         0.670462
 H        -0.781339        -0.123912        -0.195670
 H         1.492427         0.925960        -2.136352
 H         2.120385         1.853985        -0.952619
 H         4.235098         0.201436        -1.611482
 H         2.097831        -1.601337        -2.385112
 H         3.661332        -2.231419        -1.561974
 H         1.580020        -2.332486         1.499804
 H         4.148162        -0.977712         1.052425
