19
Iteration:  3245charge 0 multiplicity 1
 C        -0.070184         0.353967         0.315790
 C         1.369552        -0.073671         0.039847
 C         2.009511         0.671700        -1.128686
 C         3.320110        -0.090788        -1.145556
 C         2.830665        -1.492570        -1.454512
 C         2.150557        -1.381450        -0.097632
 O         1.573079        -2.447597         0.500290
 C         3.270715        -0.453559         0.461893
 O         2.370193         0.438791         1.105928
 H        -0.599051         0.040764         1.221085
 H        -0.226267         1.437712         0.174263
 H        -0.683860        -0.152558        -0.516727
 H         1.510581         0.329945        -2.014857
 H         2.121559         1.675250        -0.820129
 H         4.199189         0.088070        -1.709394
 H         2.172118        -1.591683        -2.408097
 H         3.614032        -2.181298        -1.551928
 H         2.049420        -3.257840         0.243592
 H         4.112993        -0.811456         1.135991
