19
Iteration:   185charge 0 multiplicity 1
 C        -0.115935         0.216728         0.404116
 C         1.394856         0.004508        -0.011397
 C         1.959083         0.685739        -1.216349
 C         3.334552        -0.021136        -1.096425
 C         2.988401        -1.495873        -1.513774
 C         2.132098        -1.398900        -0.171928
 O         1.463143        -2.368509         0.584607
 C         3.268188        -0.539651         0.395656
 O         2.376309         0.384486         1.097948
 H        -0.344734        -0.403212         1.312694
 H        -0.208196         1.274013         0.691348
 H        -0.882706         0.026369        -0.418404
 H         1.528067         0.474509        -2.187161
 H         2.121285         1.760353        -1.138560
 H         4.143072         0.520306        -1.332909
 H         2.414779        -1.607188        -2.448803
 H         3.851202        -2.196630        -1.578672
 H         2.184864        -2.897362         1.091440
 H         4.153978        -0.787969         0.949167
