19
Iteration:  3661
 C        -0.017741         0.207119         0.210243
 C         1.447163        -0.017761        -0.008182
 C         2.069081         0.801953        -1.172975
 C         3.329978        -0.009451        -1.171705
 C         2.777823        -1.507734        -1.465974
 C         2.108368        -1.379209        -0.081752
 O         1.548677        -2.526917         0.569267
 C         3.227434        -0.449881         0.472326
 O         2.375786         0.393540         1.125950
 H        -0.329924        -0.381138         1.129523
 H        -0.295371         1.204496         0.269992
 H        -0.508330        -0.333933        -0.576447
 H         1.496665         0.794574        -2.136594
 H         2.230469         1.859802        -1.031274
 H         4.411935         0.131613        -1.452674
 H         2.173287        -1.804115        -2.408659
 H         3.553312        -2.232481        -1.307865
 H         0.982685        -2.287079         1.340877
 H         4.125497        -0.724999         1.006613
