19
Iteration:   752charge 0 multiplicity 1
 C        -0.036608         0.204147         0.269899
 C         1.410817         0.007059         0.126384
 C         2.026490         0.784456        -1.185478
 C         3.290113        -0.111826        -1.162680
 C         2.802441        -1.514500        -1.520409
 C         2.047938        -1.362740        -0.145560
 O         1.538220        -2.409327         0.571880
 C         3.249678        -0.507505         0.319388
 O         2.435994         0.457421         1.171756
 H        -0.248602        -0.529140         1.096513
 H        -0.334707         1.118050         0.697717
 H        -0.506462        -0.412668        -0.479619
 H         1.375605         0.435862        -1.959014
 H         2.066405         1.821557        -0.984523
 H         4.142010         0.327554        -1.635336
 H         2.275894        -1.725820        -2.411942
 H         3.665912        -2.209219        -1.289855
 H         2.283344        -2.918799         0.996067
 H         4.133266        -0.822086         0.993421
