19
Iteration:   849
 C        -0.068091         0.213805         0.325910
 C         1.424357         0.023913         0.067860
 C         1.966927         0.662981        -1.190610
 C         3.294853        -0.060062        -1.199342
 C         2.809940        -1.495339        -1.436521
 C         2.152843        -1.333967        -0.084454
 O         1.508031        -2.429905         0.607421
 C         3.335640        -0.455049         0.396121
 O         2.412013         0.420148         1.094505
 H        -0.495172        -0.459967         1.137294
 H        -0.306881         1.220776         0.711827
 H        -0.539732        -0.043758        -0.769601
 H         1.416644         0.467570        -2.130995
 H         2.039420         1.729334        -0.907473
 H         4.202927         0.346474        -1.578850
 H         2.304210        -1.498478        -2.391458
 H         3.605430        -2.332358        -1.379524
 H         1.642782        -3.235843         0.037911
 H         4.346269        -0.871692         0.842206
