19
Iteration:  4149
 C        -0.044018         0.314643         0.358277
 C         1.381275         0.027972         0.016814
 C         2.077375         0.713743        -1.250757
 C         3.357133        -0.094062        -1.070832
 C         2.947187        -1.542825        -1.470772
 C         2.109821        -1.397680        -0.085280
 O         1.485919        -2.469291         0.585505
 C         3.223445        -0.450290         0.421739
 O         2.282282         0.417248         1.078219
 H        -0.493606        -0.634588         0.820290
 H        -0.169206         1.197496         1.008142
 H        -0.439603         0.647951        -0.603755
 H         1.471903         0.385719        -2.134850
 H         2.033008         1.811701        -1.115197
 H         4.306102         0.351887        -1.516563
 H         2.561754        -1.851699        -2.469340
 H         3.821692        -2.234711        -1.301596
 H         1.762824        -3.328322         0.078462
 H         4.153671        -0.533484         0.932830
