19
Iteration:  1453charge 0 multiplicity 1
 C         0.032547         0.396087         0.492054
 C         1.406781        -0.034293        -0.014422
 C         2.043868         0.783086        -1.108614
 C         3.273826        -0.073583        -1.236042
 C         2.610296        -1.556887        -1.539328
 C         2.166500        -1.457526        -0.079469
 O         1.619927        -2.586493         0.524369
 C         3.284899        -0.493192         0.366632
 O         2.451709         0.449613         1.044902
 H        -0.104759        -0.152657         1.462728
 H        -0.082890         1.492276         0.716097
 H        -0.803572         0.190931        -0.287337
 H         1.402637         0.882543        -1.988430
 H         2.194449         1.838933        -0.779151
 H         4.121952         0.304692        -1.659947
 H         1.834360        -1.483580        -2.230004
 H         3.353375        -2.376234        -1.625160
 H         0.910459        -2.501208         1.158424
 H         4.148427        -0.944061         0.887793
