19
Iteration:  3890
 C        -0.062250         0.238883         0.300261
 C         1.381694         0.067401        -0.048411
 C         2.071847         0.751013        -1.177796
 C         3.411064        -0.207145        -1.131733
 C         2.809322        -1.512913        -1.524021
 C         2.117078        -1.358446        -0.125821
 O         1.554209        -2.561065         0.510402
 C         3.182408        -0.452329         0.575453
 O         2.304141         0.517965         1.101888
 H        -0.163255        -0.549138         1.205768
 H        -0.296748         1.214018         0.744202
 H        -0.770282         0.123881        -0.536275
 H         1.597695         0.896403        -2.151885
 H         2.394724         1.718941        -0.879311
 H         4.415208         0.163532        -1.663736
 H         2.269814        -1.702000        -2.501894
 H         3.602793        -2.183323        -1.464276
 H         2.074456        -2.690298         1.316507
 H         4.133981        -0.785373         1.056510
