19
Iteration:   859charge 0 multiplicity 1
 C        -0.008325         0.200016         0.336771
 C         1.399484         0.006580         0.064423
 C         2.013616         0.699047        -1.118342
 C         3.330436        -0.096380        -1.183646
 C         2.794244        -1.464376        -1.499577
 C         2.188516        -1.426742        -0.090587
 O         1.516249        -2.403153         0.618892
 C         3.284446        -0.449110         0.397879
 O         2.358913         0.431767         1.070580
 H        -0.388457        -0.558742         1.074294
 H        -0.162361         1.274283         0.440503
 H        -0.699536         0.123474        -0.635891
 H         1.251302         0.577084        -1.924573
 H         2.150495         1.828801        -1.033698
 H         4.023293         0.272723        -1.870738
 H         2.160984        -1.759009        -2.359294
 H         3.746577        -2.150984        -1.518131
 H         1.560899        -3.249421         0.175280
 H         4.260946        -0.605557         1.088128
