19
Iteration:  1148
 C        -0.093064         0.367041         0.409786
 C         1.406178        -0.008843         0.075920
 C         1.982510         0.736178        -1.221464
 C         3.345546        -0.066826        -1.256312
 C         2.720192        -1.500619        -1.512803
 C         2.174612        -1.425987        -0.076407
 O         1.524026        -2.513286         0.610581
 C         3.322430        -0.492710         0.357859
 O         2.445739         0.408652         1.126712
 H        -0.262219        -0.148685         1.338521
 H        -0.186048         1.413595         0.665446
 H        -0.787870        -0.024187        -0.316534
 H         1.313769         0.653624        -2.103266
 H         2.068547         1.834626        -1.074942
 H         4.257467         0.276452        -1.734455
 H         1.977864        -1.321204        -2.263521
 H         3.563698        -2.304492        -1.474840
 H         1.990155        -3.331565         0.288596
 H         4.183209        -0.839129         0.904957
