19
Iteration:  4305charge 0 multiplicity 1
 C        -0.004999         0.299584         0.345642
 C         1.355193        -0.025551         0.024360
 C         2.102705         0.702691        -1.229774
 C         3.342643        -0.091195        -1.118929
 C         2.902358        -1.495390        -1.358542
 C         2.051670        -1.391191        -0.111804
 O         1.457127        -2.536339         0.494933
 C         3.291137        -0.371637         0.461013
 O         2.301802         0.409010         1.102582
 H        -0.306969         0.157709         1.365918
 H         0.057136         1.375223         0.337152
 H        -0.676853        -0.052108        -0.438415
 H         1.708168         0.445426        -2.250357
 H         2.161186         1.770798        -1.034898
 H         4.156949         0.444389        -1.689198
 H         2.408558        -1.652176        -2.361604
 H         3.596690        -2.266182        -1.318050
 H         1.935424        -3.155763        -0.027146
 H         4.252591        -0.725354         1.060418
