19
Iteration:  3959charge 0 multiplicity 1
 C        -0.091964         0.227074         0.291969
 C         1.369481        -0.018413        -0.024624
 C         2.082765         0.719697        -1.177853
 C         3.349469        -0.113038        -1.091966
 C         2.849446        -1.483225        -1.488118
 C         2.136981        -1.404103        -0.090961
 O         1.543398        -2.440848         0.559391
 C         3.359594        -0.469393         0.383249
 O         2.344246         0.402993         1.143103
 H        -0.516913        -0.580823         0.956730
 H        -0.418560         1.223681         0.782082
 H        -0.657190         0.354626        -0.723231
 H         1.432705         0.641727        -2.093031
 H         2.144952         1.810599        -0.932747
 H         4.202622         0.253484        -1.581832
 H         2.274099        -1.700095        -2.422691
 H         3.577637        -2.381201        -1.347438
 H         0.746405        -2.112739         0.895694
 H         4.284478        -0.577168         0.949521
