19
Iteration:  4460
 C         0.034734         0.371957         0.396922
 C         1.358223         0.023537        -0.036384
 C         2.088849         0.807277        -1.260614
 C         3.407318        -0.075438        -1.071228
 C         2.830108        -1.488211        -1.469636
 C         2.115942        -1.406542        -0.125848
 O         1.598141        -2.618104         0.633512
 C         3.168931        -0.522572         0.414413
 O         2.262540         0.384905         1.059014
 H        -0.044097         0.122452         1.441749
 H        -0.036208         1.480009         0.280994
 H        -0.857350        -0.123098        -0.091715
 H         1.627092         0.736151        -2.271928
 H         2.288258         1.867443        -1.086856
 H         4.316353         0.319434        -1.447551
 H         2.231976        -1.559066        -2.427213
 H         3.580629        -2.210394        -1.341562
 H         0.811086        -2.864701         0.038105
 H         4.196161        -0.731196         0.999951
