19
Iteration:  2387charge 0 multiplicity 1
 C        -0.024607         0.175723         0.357800
 C         1.400529         0.040785         0.062870
 C         2.012554         0.787531        -1.128337
 C         3.306391        -0.125997        -1.194962
 C         2.781581        -1.543885        -1.462656
 C         2.182473        -1.375288        -0.069519
 O         1.522255        -2.486749         0.617454
 C         3.323460        -0.499612         0.334742
 O         2.412319         0.480069         1.054965
 H        -0.507862        -0.581393         0.890131
 H        -0.053848         1.042129         0.869033
 H        -0.503723         0.162811        -0.636313
 H         1.362399         0.768509        -2.012604
 H         2.255440         1.802826        -1.015335
 H         4.053374         0.402452        -1.617827
 H         2.086042        -1.461012        -2.246952
 H         3.522413        -2.368368        -1.343578
 H         0.598968        -2.699234         0.217891
 H         4.386614        -0.639356         0.685335
