19
Iteration:  2470charge 0 multiplicity 1
 C        -0.015971         0.322583         0.310363
 C         1.401644         0.046042         0.105533
 C         2.003590         0.733377        -1.190945
 C         3.291745        -0.051833        -1.214100
 C         2.787572        -1.514596        -1.424430
 C         2.170760        -1.451599        -0.098190
 O         1.478033        -2.525194         0.569190
 C         3.247262        -0.443111         0.369377
 O         2.421113         0.395723         1.105440
 H        -0.192012         0.104210         1.378199
 H        -0.391230         1.347772        -0.071448
 H        -0.556669        -0.399084        -0.371238
 H         1.300547         0.733624        -2.031785
 H         2.216458         1.756296        -0.742446
 H         4.186857         0.321666        -1.737994
 H         2.229342        -1.837612        -2.349007
 H         3.694680        -2.057139        -1.517069
 H         2.181307        -3.152997         0.859136
 H         4.234231        -0.602269         0.842741
