19
Iteration:  4385charge 0 multiplicity 1
 C        -0.041268         0.159482         0.296836
 C         1.403885         0.068785        -0.030931
 C         2.132743         0.818811        -1.154584
 C         3.355832        -0.162373        -1.103560
 C         2.773962        -1.531647        -1.550317
 C         2.208210        -1.459003        -0.128964
 O         1.492167        -2.411647         0.606758
 C         3.217155        -0.509161         0.467092
 O         2.320725         0.440443         1.059379
 H        -0.287484        -0.859594         0.504105
 H        -0.325600         0.914255         1.022222
 H        -0.718559         0.494110        -0.501494
 H         1.578373         0.947420        -2.158403
 H         2.276630         1.847051        -0.683776
 H         4.350160         0.060914        -1.335095
 H         2.100806        -1.480027        -2.424354
 H         3.615844        -2.227151        -1.738282
 H         1.550495        -2.105958         1.515867
 H         4.178721        -0.838641         0.932346
