19
Iteration:  1494charge 0 multiplicity 1
 C         0.012824         0.357697         0.515926
 C         1.414474         0.112194         0.039211
 C         1.970898         0.762461        -1.150411
 C         3.329815        -0.150660        -1.207161
 C         2.681585        -1.537744        -1.600966
 C         2.022641        -1.331147        -0.187385
 O         1.723196        -2.453761         0.625239
 C         3.211077        -0.601045         0.333385
 O         2.485620         0.359635         1.133223
 H         0.003668        -0.130839         1.458741
 H        -0.206493         1.398233         0.470776
 H        -0.758461        -0.019692        -0.235388
 H         1.343799         0.559255        -2.022960
 H         2.062499         1.771928        -0.861000
 H         4.315996         0.142447        -1.647026
 H         1.792695        -1.685273        -2.404586
 H         3.553227        -2.207433        -1.628470
 H         0.775706        -2.660155         0.324311
 H         4.004414        -1.168188         0.844451
