19
Iteration:  4141charge 0 multiplicity 1
 C        -0.031618         0.246128         0.304863
 C         1.386173        -0.021127         0.014374
 C         1.991745         0.773266        -1.203814
 C         3.336781        -0.148404        -1.073624
 C         2.938377        -1.557915        -1.405622
 C         2.123748        -1.373085        -0.113339
 O         1.504777        -2.409490         0.547381
 C         3.229805        -0.447409         0.461018
 O         2.339480         0.457315         1.061778
 H        -0.654729        -0.503366         0.822588
 H         0.011448         1.082386         0.952870
 H        -0.427605         0.594525        -0.583083
 H         1.432095         0.317541        -2.104825
 H         2.103615         1.863555        -1.138340
 H         4.250312         0.373614        -1.471217
 H         2.562156        -1.786417        -2.500411
 H         3.783711        -2.199967        -1.298883
 H         1.545093        -3.352139         0.137044
 H         4.115171        -0.970856         0.978218
