19
Iteration:  1578charge 0 multiplicity 1
 C         0.004353         0.225205         0.641744
 C         1.427536         0.068873         0.035948
 C         2.045882         0.801002        -1.223344
 C         3.288465        -0.162741        -1.222994
 C         2.709909        -1.514760        -1.572105
 C         2.056876        -1.367848        -0.170385
 O         1.434411        -2.428553         0.576563
 C         3.346627        -0.557217         0.320543
 O         2.499563         0.426943         1.075264
 H        -0.360699        -0.545415         1.357156
 H        -0.049745         1.220729         1.161175
 H        -0.719211         0.142929        -0.190084
 H         1.178808         0.701844        -1.955202
 H         2.252608         1.925842        -1.161653
 H         4.333682         0.191600        -1.682209
 H         2.137474        -1.473740        -2.432020
 H         3.340901        -2.371824        -1.789881
 H         2.044575        -2.944342         1.073630
 H         4.275127        -0.895000         0.814516
