19
Iteration:   636
 C         0.020098         0.185826         0.425666
 C         1.366707        -0.079604         0.031520
 C         2.022927         0.761201        -1.241456
 C         3.289359        -0.057924        -1.149574
 C         2.789708        -1.459140        -1.470433
 C         2.176444        -1.416208        -0.017204
 O         1.490112        -2.437651         0.476009
 C         3.330667        -0.450209         0.466706
 O         2.316139         0.479892         1.018845
 H        -0.174662        -0.300167         1.342397
 H         0.017597         1.252511         0.696759
 H        -0.690771        -0.172093        -0.213675
 H         1.622056         0.281105        -2.107492
 H         2.171061         1.834362        -1.150721
 H         4.338160         0.322468        -1.526085
 H         2.026006        -1.570851        -2.310450
 H         3.511559        -2.203301        -1.473839
 H         2.010797        -3.268747         0.766748
 H         4.243741        -0.816584         0.853442
