19
Iteration:  4864charge 0 multiplicity 1
 C        -0.046998         0.269937         0.444271
 C         1.445228         0.123570         0.034926
 C         2.197974         0.820689        -1.157074
 C         3.346918        -0.126100        -1.212191
 C         2.702336        -1.515495        -1.495229
 C         2.115500        -1.406875        -0.162676
 O         1.494195        -2.414473         0.581716
 C         3.208960        -0.560813         0.378314
 O         2.387315         0.350235         1.117165
 H        -0.307144        -0.724511         0.854469
 H        -0.017153         0.898314         1.353755
 H        -0.658932         0.613710        -0.303962
 H         1.645931         0.716326        -2.194599
 H         2.194711         1.964256        -1.045780
 H         4.381374         0.187182        -1.426474
 H         2.161228        -1.583533        -2.411180
 H         3.422746        -2.344756        -1.476524
 H         1.331982        -3.071734        -0.097747
 H         4.035921        -1.047860         0.947103
