19
Iteration:  2315
 C        -0.043304         0.286563         0.466321
 C         1.329914         0.072836         0.003896
 C         2.038354         0.766320        -1.190451
 C         3.316096        -0.107614        -1.186447
 C         2.794598        -1.555501        -1.486715
 C         2.124762        -1.399971        -0.128954
 O         1.550814        -2.502074         0.535816
 C         3.330636        -0.561812         0.417702
 O         2.358993         0.443311         1.009119
 H        -0.098277        -0.278529         1.487330
 H        -0.099481         1.394062         0.797383
 H        -0.842383        -0.061055        -0.188895
 H         1.473247         0.803855        -2.164950
 H         2.274562         1.756676        -0.712237
 H         4.288620         0.196433        -1.753771
 H         2.076592        -1.465728        -2.350265
 H         3.617386        -2.235501        -1.698988
 H         1.755190        -2.625095         1.499070
 H         4.235724        -0.724263         0.953353
