19
Iteration:  2043
 C         0.030995         0.259856         0.480880
 C         1.422487         0.020543        -0.005638
 C         2.075388         0.717488        -1.126158
 C         3.302053        -0.112859        -1.222292
 C         2.695349        -1.506305        -1.556682
 C         2.096592        -1.404781        -0.137762
 O         1.618488        -2.500641         0.604973
 C         3.298343        -0.486354         0.369701
 O         2.370791         0.424945         1.069719
 H        -0.192697        -0.107484         1.571497
 H        -0.177782         1.309543         0.643788
 H        -0.676548         0.038410        -0.253279
 H         1.684927         0.851833        -2.190679
 H         2.302052         1.759911        -0.747925
 H         4.075541         0.282756        -1.816848
 H         1.906634        -1.618146        -2.358664
 H         3.423972        -2.231293        -1.831032
 H         0.656865        -2.336390         0.911297
 H         4.057477        -0.761811         0.991996
