19
Iteration:  2634charge 0 multiplicity 1
 C        -0.056513         0.286550         0.343816
 C         1.401452         0.086780        -0.072637
 C         2.030730         0.821148        -1.213002
 C         3.329696        -0.164156        -1.118640
 C         2.788774        -1.504834        -1.531761
 C         2.178026        -1.423848        -0.130287
 O         1.600116        -2.456054         0.663022
 C         3.182880        -0.509320         0.437711
 O         2.321375         0.364615         1.086133
 H        -0.137033        -0.183950         1.296140
 H        -0.412251         1.379574         0.396687
 H        -0.721915        -0.175950        -0.400373
 H         1.592993         0.525637        -2.154779
 H         2.091292         1.909660        -1.027088
 H         4.286500         0.206502        -1.262336
 H         2.133537        -1.665371        -2.473975
 H         3.602247        -2.164204        -1.566672
 H         2.298804        -3.003307         1.050922
 H         4.190685        -0.639367         0.914542
