19
Iteration:  4175
 C        -0.092012         0.342823         0.389343
 C         1.330789         0.021717        -0.098095
 C         2.122729         0.778742        -1.260997
 C         3.393930        -0.130894        -1.087184
 C         2.883262        -1.536151        -1.449265
 C         2.183017        -1.414719        -0.049312
 O         1.546751        -2.507514         0.524726
 C         3.191420        -0.485626         0.507776
 O         2.266112         0.431149         1.066991
 H        -0.516590        -0.473482         0.986764
 H         0.063512         1.301240         0.848259
 H        -0.767528         0.558608        -0.456611
 H         1.486733         0.587042        -2.214560
 H         2.104663         1.886702        -1.140774
 H         4.267967         0.228267        -1.658059
 H         2.126855        -1.560952        -2.343350
 H         3.659994        -2.330486        -1.464077
 H         2.282833        -3.208779         0.669578
 H         4.056886        -0.842467         1.220080
