19
Iteration:  2592
 C        -0.070340         0.297936         0.334236
 C         1.363315         0.090270         0.002642
 C         1.991606         0.720104        -1.207378
 C         3.329661        -0.061167        -1.120887
 C         2.785697        -1.548001        -1.485587
 C         2.158719        -1.451784        -0.052801
 O         1.607523        -2.570613         0.509130
 C         3.250696        -0.460885         0.440112
 O         2.377304         0.458734         1.074231
 H        -0.480106        -0.294317         1.101723
 H        -0.126802         1.303180         0.737939
 H        -0.658087         0.372720        -0.618760
 H         1.416000         0.624792        -2.135770
 H         2.220937         1.767851        -1.130523
 H         4.151286         0.259357        -1.640725
 H         2.217812        -1.719593        -2.409860
 H         3.564871        -2.268611        -1.274930
 H         1.948569        -2.754833         1.436457
 H         4.209475        -0.707201         1.013972
