19
Iteration:  3464charge 0 multiplicity 1
 C        -0.032740         0.081425         0.326934
 C         1.409908         0.057120         0.041977
 C         2.126997         0.748278        -1.133948
 C         3.386248        -0.072583        -1.146565
 C         2.773514        -1.478108        -1.486688
 C         2.085663        -1.359367        -0.093642
 O         1.464178        -2.444874         0.487063
 C         3.311792        -0.500760         0.387400
 O         2.372163         0.444304         1.083707
 H        -0.252947        -0.342708         1.332607
 H        -0.269665         1.116953         0.415766
 H        -0.605604        -0.229316        -0.538799
 H         1.487483         0.555609        -2.096573
 H         2.186004         1.812501        -0.874342
 H         4.411358         0.168267        -1.567685
 H         2.015750        -1.572688        -2.316390
 H         3.435759        -2.279135        -1.359825
 H         1.255664        -2.402542         1.391473
 H         4.153926        -0.694102         1.070332
