19
Iteration:   367
 C        -0.043842         0.208605         0.386944
 C         1.460543        -0.010983         0.063136
 C         1.977035         0.785568        -1.156935
 C         3.272573        -0.038473        -1.249023
 C         2.888752        -1.557677        -1.454132
 C         2.142955        -1.374428        -0.104646
 O         1.470437        -2.473177         0.596087
 C         3.304123        -0.389992         0.354540
 O         2.362067         0.390739         1.101255
 H        -0.322865        -0.454415         1.169963
 H        -0.349127         1.195551         0.639102
 H        -0.687231         0.038747        -0.561087
 H         1.480105         0.866473        -2.157126
 H         2.183283         1.763858        -0.792042
 H         4.194710         0.425890        -1.798635
 H         2.246699        -1.953285        -2.293658
 H         3.807924        -2.216649        -1.211160
 H         1.832913        -3.292557         0.296296
 H         4.198175        -0.688330         0.818128
