19
Iteration:  2892charge 0 multiplicity 1
 C        -0.080185         0.237632         0.451938
 C         1.373787         0.069207         0.036389
 C         2.081917         0.769254        -1.274562
 C         3.339764        -0.078294        -1.118220
 C         2.779222        -1.572071        -1.524239
 C         2.087260        -1.372028        -0.049455
 O         1.610509        -2.606901         0.488207
 C         3.334078        -0.451068         0.432671
 O         2.346069         0.463960         1.071091
 H        -0.244482        -0.093624         1.500164
 H        -0.351872         1.418789         0.524246
 H        -0.701874        -0.123055        -0.320341
 H         1.624650         0.458602        -2.214806
 H         2.277698         1.861088        -1.083544
 H         4.295812         0.191761        -1.523400
 H         2.048059        -1.583965        -2.354611
 H         3.665918        -2.277332        -1.761502
 H         0.856434        -2.362806         1.143499
 H         4.173086        -0.605625         1.025257
