19
Iteration:   621
 C        -0.090970         0.168644         0.502467
 C         1.393097         0.096775        -0.014654
 C         2.084285         0.697769        -1.256189
 C         3.403577        -0.111578        -1.125528
 C         2.788431        -1.480328        -1.499305
 C         2.127325        -1.385594        -0.138742
 O         1.522993        -2.490975         0.542793
 C         3.226932        -0.453864         0.413399
 O         2.363698         0.467506         1.068797
 H        -0.194438        -0.489095         1.440906
 H        -0.437817         1.237865         0.705623
 H        -0.849934        -0.207786        -0.282229
 H         1.497550         0.661728        -2.274037
 H         2.177931         1.787187        -0.997160
 H         4.243866         0.295563        -1.597668
 H         2.141111        -1.470431        -2.397386
 H         3.547592        -2.344634        -1.626040
 H         2.289610        -2.979007         0.894227
 H         4.136685        -0.660222         1.109428
