19
Iteration:  3208
 C        -0.005584         0.181737         0.427737
 C         1.405109         0.043652         0.003846
 C         2.169008         0.762334        -1.215156
 C         3.368846        -0.119867        -1.143523
 C         2.847267        -1.479857        -1.438131
 C         2.030985        -1.396784        -0.113288
 O         1.479413        -2.517167         0.591724
 C         3.227538        -0.384375         0.389585
 O         2.309560         0.442859         1.074017
 H        -0.111852        -0.409816         1.355463
 H        -0.431511         1.244805         0.530001
 H        -0.497055        -0.313700        -0.425658
 H         1.602949         0.694396        -2.160610
 H         2.005139         1.877880        -1.160113
 H         4.226976         0.280385        -1.709274
 H         2.481835        -1.517284        -2.401219
 H         3.762300        -2.114402        -1.190709
 H         1.661157        -3.237747         0.044872
 H         4.086713        -0.760240         0.880376
