19
Iteration:  1838
 C         0.078833         0.276697         0.627682
 C         1.458586         0.136318         0.012224
 C         2.010079         0.758860        -1.202095
 C         3.337555        -0.094734        -1.190730
 C         2.659770        -1.536703        -1.547577
 C         2.013733        -1.383193        -0.109511
 O         1.621426        -2.528285         0.554489
 C         3.229167        -0.546079         0.366763
 O         2.456552         0.420416         1.014859
 H        -0.106942        -0.300958         1.539152
 H        -0.127102         1.329948         0.967048
 H        -0.645982        -0.127272         0.018346
 H         1.473176         0.809180        -2.094936
 H         2.140703         1.857230        -1.027856
 H         4.226692         0.297495        -1.753842
 H         2.116107        -1.636841        -2.547801
 H         3.469647        -2.317746        -1.630940
 H         0.651808        -2.761244         0.363080
 H         4.044968        -0.924362         0.916572
