19
Iteration:  3564charge 0 multiplicity 1
 C        -0.047387         0.313201         0.313520
 C         1.408335        -0.011954         0.010942
 C         2.050109         0.682625        -1.188557
 C         3.359089        -0.140370        -1.136189
 C         2.809056        -1.489806        -1.408775
 C         2.097944        -1.334659        -0.080790
 O         1.586921        -2.499963         0.539998
 C         3.235993        -0.465667         0.461061
 O         2.350706         0.431245         1.071216
 H        -0.459079        -0.384070         1.105822
 H        -0.058182         1.275898         0.721003
 H        -0.677736         0.328415        -0.529793
 H         1.357803         0.764613        -2.071392
 H         1.921797         1.738265        -1.047569
 H         4.259620         0.399357        -1.503543
 H         2.274094        -1.603146        -2.390796
 H         3.492980        -2.248475        -1.277681
 H         1.779259        -3.193408        -0.154836
 H         4.085885        -0.784770         1.060787
