19
Iteration:  4503
 C        -0.052891         0.389500         0.344979
 C         1.420557         0.118395         0.058765
 C         2.088402         0.724194        -1.198852
 C         3.315731        -0.095766        -1.138599
 C         2.897832        -1.522375        -1.495106
 C         1.996293        -1.420070        -0.086554
 O         1.549831        -2.593487         0.569726
 C         3.252800        -0.493133         0.388328
 O         2.368821         0.433093         1.149393
 H        -0.294478         0.387026         1.397620
 H        -0.349672         1.303757        -0.242367
 H        -0.788587        -0.347971        -0.207509
 H         1.451535         0.521307        -2.044269
 H         2.237256         1.748237        -1.030926
 H         4.215591         0.371330        -1.430902
 H         2.456328        -1.513286        -2.592850
 H         3.586161        -2.324459        -1.451983
 H         1.448106        -3.324172        -0.133780
 H         4.248863        -0.830005         1.106924
