19
Iteration:   923
 C        -0.028682         0.177084         0.361132
 C         1.432243         0.070261         0.050571
 C         1.932337         0.738803        -1.203797
 C         3.336235        -0.143233        -1.150139
 C         2.854902        -1.487085        -1.499104
 C         2.146201        -1.387217        -0.086683
 O         1.500664        -2.456039         0.532491
 C         3.237265        -0.465729         0.381953
 O         2.397189         0.460394         1.113445
 H        -0.241200        -0.358489         1.313589
 H        -0.296177         1.229902         0.537379
 H        -0.550083        -0.145975        -0.436600
 H         1.368401         0.560201        -2.175673
 H         2.326301         1.791078        -0.930981
 H         4.169950         0.353067        -1.522591
 H         2.206562        -1.713642        -2.390104
 H         3.501919        -2.336434        -1.800399
 H         1.905194        -2.858751         1.273023
 H         4.248371        -0.786567         0.890707
