19
Iteration:  3671charge 0 multiplicity 1
 C        -0.008753         0.192067         0.215056
 C         1.383767         0.065376         0.010571
 C         2.029447         0.865219        -1.188359
 C         3.351408        -0.154206        -1.088970
 C         2.770818        -1.564330        -1.395019
 C         2.134668        -1.376194        -0.085592
 O         1.584972        -2.515632         0.494939
 C         3.282269        -0.489760         0.446910
 O         2.320041         0.420387         1.092454
 H        -0.430197        -0.314346         1.148866
 H        -0.183833         1.235395         0.347857
 H        -0.615054        -0.201677        -0.633110
 H         1.499419         0.689993        -2.114856
 H         2.295451         1.829329        -0.873696
 H         4.218345         0.444885        -1.517912
 H         2.096362        -1.610521        -2.330529
 H         3.604914        -2.247502        -1.471392
 H         1.453322        -2.174162         1.454397
 H         4.192153        -0.756535         0.955141
