19
Iteration:  3409
 C        -0.053059         0.405037         0.405109
 C         1.345133         0.056814        -0.000237
 C         2.041207         0.698979        -1.212516
 C         3.367275        -0.071985        -1.078711
 C         2.832259        -1.516165        -1.497354
 C         2.098201        -1.411150        -0.157619
 O         1.674590        -2.534662         0.533821
 C         3.260572        -0.482737         0.372903
 O         2.310280         0.350940         1.123749
 H        -0.274812        -0.004887         1.449872
 H        -0.108127         1.491171         0.376724
 H        -0.720132        -0.133836        -0.338626
 H         1.508774         0.537846        -2.215888
 H         2.188103         1.710350        -0.807951
 H         4.258686         0.311360        -1.645794
 H         2.345330        -1.561713        -2.561130
 H         3.529559        -2.338922        -1.470338
 H         0.770775        -2.549896         0.889328
 H         3.985203        -0.837836         1.163913
