19
Iteration:  3471
 C        -0.069607         0.083533         0.364666
 C         1.405245         0.062750         0.030532
 C         2.124198         0.754553        -1.203966
 C         3.398519        -0.060936        -1.137241
 C         2.735693        -1.505566        -1.499936
 C         2.137575        -1.372537        -0.067365
 O         1.441617        -2.429291         0.481937
 C         3.307595        -0.503009         0.459949
 O         2.386506         0.434670         1.096975
 H        -0.417370        -0.439276         1.205946
 H        -0.402748         1.148214         0.507800
 H        -0.720887        -0.314568        -0.467553
 H         1.652204         0.807553        -2.166452
 H         2.308102         1.873781        -1.173041
 H         4.284246         0.218776        -1.668949
 H         2.197071        -1.579565        -2.418735
 H         3.631125        -2.237383        -1.671761
 H         1.537306        -2.333539         1.450879
 H         4.143228        -0.900428         1.119441
