19
Iteration:   172charge 0 multiplicity 1
 C        -0.094131         0.215075         0.390477
 C         1.323972        -0.013645         0.046972
 C         2.014109         0.669476        -1.222697
 C         3.485135        -0.029540        -1.130154
 C         2.920592        -1.405395        -1.536437
 C         2.082920        -1.373491        -0.147867
 O         1.504697        -2.386294         0.642353
 C         3.229196        -0.455681         0.379390
 O         2.384398         0.355682         1.104343
 H        -0.559095        -0.468589         1.125593
 H        -0.256407         1.242079         0.699979
 H        -0.709240        -0.037714        -0.596377
 H         1.369430         0.210387        -2.084853
 H         1.799639         1.762584        -1.173882
 H         4.312615         0.319920        -1.618593
 H         2.564999        -1.495920        -2.541721
 H         3.557369        -2.326462        -1.265224
 H         2.056591        -3.153282         0.626645
 H         4.031172        -1.001858         0.872142
