19
Iteration:  1682charge 0 multiplicity 1
 C         0.000827         0.305116         0.550519
 C         1.432019         0.066409         0.118421
 C         1.973446         0.769310        -1.123012
 C         3.295664        -0.135551        -1.268361
 C         2.641346        -1.502332        -1.557639
 C         2.142813        -1.411423        -0.138517
 O         1.546943        -2.493643         0.481874
 C         3.360222        -0.544977         0.292744
 O         2.487341         0.386080         1.092348
 H        -0.048869        -0.091197         1.572179
 H        -0.133255         1.388875         0.547780
 H        -0.858337        -0.018312         0.000070
 H         1.418343         0.633994        -2.020285
 H         2.344609         1.732084        -0.798423
 H         4.129267         0.175825        -1.849077
 H         1.754430        -1.441321        -2.284901
 H         3.377779        -2.375516        -1.625319
 H         0.962788        -2.221157         1.214608
 H         4.291442        -0.792745         0.899103
