19
Iteration:  3656charge 0 multiplicity 1
 C        -0.050760         0.175155         0.237569
 C         1.470520         0.015793        -0.015864
 C         2.112828         0.761287        -1.185661
 C         3.326073         0.000369        -1.185742
 C         2.798580        -1.465235        -1.485356
 C         2.118986        -1.417173        -0.089566
 O         1.534782        -2.516466         0.596777
 C         3.234069        -0.470121         0.439641
 O         2.368275         0.404089         1.152172
 H        -0.269886        -0.241116         1.211581
 H        -0.459385         1.290203         0.209665
 H        -0.513782        -0.249106        -0.744252
 H         1.524213         0.715493        -2.087835
 H         2.063618         1.845504        -0.864348
 H         4.283169         0.165114        -1.612737
 H         2.250751        -1.748491        -2.334290
 H         3.562389        -2.295646        -1.303362
 H         0.805622        -2.312617         1.249955
 H         4.120758        -0.740170         1.054090
