19
Iteration:  3860
 C        -0.048936         0.299071         0.285693
 C         1.361562         0.050713         0.062256
 C         1.984257         0.740732        -1.225677
 C         3.459380        -0.060529        -1.064711
 C         2.835125        -1.481975        -1.436378
 C         2.141491        -1.367977        -0.126880
 O         1.477878        -2.525794         0.534262
 C         3.286957        -0.456829         0.434039
 O         2.293772         0.353348         1.064300
 H        -0.392191        -0.080474         1.242725
 H        -0.284510         1.382242         0.319252
 H        -0.642841        -0.212039        -0.493047
 H         1.571224         0.369246        -2.157888
 H         2.195383         1.755873        -1.009336
 H         4.456717         0.223416        -1.493949
 H         2.322504        -1.725325        -2.415779
 H         3.717248        -2.170488        -1.382351
 H         2.107839        -2.854071         1.194529
 H         4.288291        -0.772968         0.819518
