19
Iteration:  1803charge 0 multiplicity 1
 C         0.009584         0.359919         0.526173
 C         1.398880         0.053707         0.146760
 C         1.976919         0.768219        -1.150075
 C         3.336016        -0.118350        -1.259223
 C         2.705225        -1.552867        -1.652535
 C         2.095321        -1.393142        -0.128041
 O         1.564722        -2.392594         0.677268
 C         3.321740        -0.513676         0.299535
 O         2.459705         0.264314         1.060810
 H        -0.270564        -0.344839         1.367591
 H        -0.110394         1.442639         0.846487
 H        -0.566457         0.316980        -0.405051
 H         1.217210         0.636891        -1.936700
 H         2.124836         1.826408        -0.721143
 H         4.073926         0.509024        -1.881220
 H         1.922101        -1.691224        -2.447042
 H         3.580609        -2.177419        -1.715161
 H         1.238883        -3.147966         0.089801
 H         4.216107        -0.733397         0.948258
