19
Iteration:  2357charge 0 multiplicity 1
 C        -0.021913         0.225435         0.387020
 C         1.434287         0.121945         0.012433
 C         2.018279         0.739880        -1.176393
 C         3.286888        -0.120450        -1.198066
 C         2.771667        -1.513909        -1.500032
 C         2.141558        -1.384089        -0.116604
 O         1.561619        -2.386872         0.631231
 C         3.230392        -0.547922         0.426252
 O         2.416695         0.379639         1.093676
 H        -0.418136        -0.699241         1.000352
 H        -0.182657         1.178064         0.978584
 H        -0.617681         0.285573        -0.552476
 H         1.324903         0.544642        -2.058752
 H         2.167822         1.822031        -1.324551
 H         4.145442         0.415996        -1.691983
 H         2.029276        -1.537770        -2.288532
 H         3.552869        -2.328178        -1.368772
 H         1.767717        -3.188600         0.176138
 H         4.180465        -0.788775         0.865071
