19
Iteration:  2446
 C        -0.044102         0.312883         0.439458
 C         1.335390         0.030235        -0.023627
 C         2.001838         0.776893        -1.173987
 C         3.339650        -0.098249        -1.173331
 C         2.816419        -1.532264        -1.520499
 C         2.132071        -1.410515        -0.148901
 O         1.552388        -2.481211         0.555200
 C         3.275674        -0.569084         0.440219
 O         2.351922         0.428015         1.096908
 H        -0.111948        -0.025059         1.532086
 H        -0.391636         1.365483         0.135089
 H        -0.664133        -0.222298        -0.242909
 H         1.583583         0.563614        -2.178122
 H         2.210761         1.875864        -0.952187
 H         4.265006         0.373293        -1.737278
 H         2.374824        -1.871428        -2.495743
 H         3.628048        -2.268783        -1.439849
 H         2.061495        -2.404422         1.337021
 H         4.218973        -0.821947         0.876264
