19
Iteration:  2424charge 0 multiplicity 1
 C        -0.036693         0.201552         0.465268
 C         1.392933         0.058215        -0.021632
 C         2.092298         0.766307        -1.256494
 C         3.347787        -0.119927        -1.178607
 C         2.815566        -1.489632        -1.501947
 C         2.060339        -1.341965        -0.078230
 O         1.626184        -2.496216         0.567700
 C         3.248481        -0.488926         0.380930
 O         2.315089         0.382538         1.085728
 H        -0.089458        -0.319989         1.494988
 H        -0.273343         1.335195         0.565168
 H        -0.812173        -0.064595        -0.229597
 H         1.552734         0.444575        -2.179888
 H         2.420873         1.848493        -1.273224
 H         4.405732         0.319342        -1.421046
 H         2.151348        -1.451252        -2.413265
 H         3.280837        -2.473294        -1.607365
 H         1.123723        -2.072757         1.346111
 H         4.068083        -0.943696         0.889525
