19
Iteration:  1223charge 0 multiplicity 1
 C         0.080186         0.175696         0.427557
 C         1.470351         0.061519         0.040846
 C         1.935726         0.755296        -1.097170
 C         3.349560        -0.142915        -1.231153
 C         2.698159        -1.556320        -1.524646
 C         2.145092        -1.335393        -0.139393
 O         1.538841        -2.417995         0.583809
 C         3.295681        -0.501736         0.319324
 O         2.418647         0.417734         1.117365
 H        -0.213675        -0.388885         1.267714
 H        -0.001534         1.119900         0.934018
 H        -0.475466         0.066254        -0.531550
 H         1.343632         0.646385        -2.102341
 H         1.927289         1.858140        -0.841859
 H         4.191509         0.364816        -1.748133
 H         1.914278        -1.740597        -2.266999
 H         3.406147        -2.472239        -1.759137
 H         0.618079        -2.235493         0.852528
 H         4.216686        -0.853711         0.775207
