19
Iteration:   712charge 0 multiplicity 1
 C         0.009600         0.116499         0.368743
 C         1.428227         0.020291         0.028240
 C         2.111229         0.774370        -1.212244
 C         3.333429        -0.062875        -1.172730
 C         2.703538        -1.465148        -1.568946
 C         2.165268        -1.440873        -0.098126
 O         1.530430        -2.479178         0.672230
 C         3.269321        -0.428977         0.441788
 O         2.259887         0.467012         1.082238
 H        -0.206983        -0.413862         1.287107
 H        -0.066487         1.290747         0.637195
 H        -0.745006        -0.055992        -0.382334
 H         1.635591         0.708551        -2.295603
 H         2.316748         1.830084        -0.821742
 H         4.406587         0.030689        -1.637366
 H         1.979039        -1.465478        -2.496466
 H         3.525908        -2.132291        -1.814515
 H         1.978657        -3.289428         0.475970
 H         4.210066        -0.630373         0.884197
