19
Iteration:  3419charge 0 multiplicity 1
 C        -0.126728         0.394915         0.387243
 C         1.357934         0.038266         0.032822
 C         2.075384         0.729475        -1.165867
 C         3.410395        -0.065103        -1.209747
 C         2.825494        -1.505673        -1.489020
 C         2.132815        -1.433540        -0.122641
 O         1.639292        -2.572446         0.539183
 C         3.246692        -0.496569         0.460392
 O         2.340237         0.357020         1.108339
 H        -0.325203         0.038891         1.417934
 H        -0.485933         1.422393         0.369959
 H        -0.867474        -0.049885        -0.358181
 H         1.384331         0.628771        -2.110520
 H         2.215621         1.870071        -1.176995
 H         4.359604         0.323716        -1.652357
 H         2.271614        -1.466673        -2.502360
 H         3.617989        -2.252159        -1.363116
 H         0.786015        -2.275014         0.770232
 H         4.249344        -0.910396         0.870898
