19
Iteration:  2621
 C        -0.071384         0.281943         0.360330
 C         1.325055         0.107752        -0.034124
 C         2.114474         0.783102        -1.221807
 C         3.345154        -0.065698        -1.111513
 C         2.769629        -1.621719        -1.489468
 C         2.112419        -1.445727        -0.115554
 O         1.656302        -2.532321         0.582851
 C         3.228441        -0.459998         0.400949
 O         2.278690         0.433611         1.093861
 H        -0.334244        -0.166159         1.350361
 H        -0.127169         1.440829         0.524859
 H        -0.762773        -0.026589        -0.366271
 H         1.609746         0.982419        -2.164920
 H         2.484649         1.810217        -0.909570
 H         4.174540         0.320575        -1.745730
 H         2.133092        -1.787819        -2.453897
 H         3.473740        -2.414371        -1.321681
 H         2.398732        -2.874680         1.125888
 H         4.032690        -0.828885         1.006790
