19
Iteration:  1290charge 0 multiplicity 1
 C         0.060565         0.365318         0.526278
 C         1.374340         0.099327         0.009208
 C         2.001462         0.750056        -1.191271
 C         3.359692        -0.164486        -1.219132
 C         2.701395        -1.492643        -1.581757
 C         2.068482        -1.425247        -0.135600
 O         1.634509        -2.454185         0.625045
 C         3.256761        -0.538501         0.384678
 O         2.357659         0.356375         1.096848
 H         0.076379        -0.027689         1.556360
 H        -0.150464         1.432385         0.779475
 H        -0.764303        -0.078628        -0.071201
 H         1.567156         0.762630        -2.245386
 H         2.124291         1.905910        -1.103079
 H         4.227707         0.047150        -1.766559
 H         1.970084        -1.539209        -2.401132
 H         3.467346        -2.418479        -1.492933
 H         1.543629        -3.175372        -0.056550
 H         4.126607        -0.636277         1.086848
