19
Iteration:   377charge 0 multiplicity 1
 C        -0.034608         0.207703         0.366911
 C         1.380014         0.039883         0.028123
 C         2.016718         0.782120        -1.146370
 C         3.300667        -0.003111        -1.172332
 C         2.852735        -1.487795        -1.442615
 C         2.099896        -1.464050        -0.150543
 O         1.477854        -2.430960         0.618528
 C         3.316354        -0.437328         0.305296
 O         2.377167         0.360798         1.099507
 H        -0.267924        -0.444500         1.184174
 H        -0.191340         1.215851         0.720709
 H        -0.722278        -0.152687        -0.486795
 H         1.360701         0.521010        -1.974355
 H         2.103019         1.812684        -1.008767
 H         4.258993         0.328527        -1.813938
 H         2.381998        -2.020295        -2.372879
 H         3.846341        -2.056542        -1.326572
 H         2.132728        -3.144860         0.634594
 H         4.163383        -0.745143         0.837817
