19
Iteration:   860charge 0 multiplicity 1
 C        -0.000821         0.200466         0.338416
 C         1.404696         0.002001         0.060505
 C         2.014778         0.714172        -1.114156
 C         3.332802        -0.097105        -1.179869
 C         2.794529        -1.469736        -1.515112
 C         2.183962        -1.442960        -0.087065
 O         1.519201        -2.400608         0.619189
 C         3.276726        -0.445500         0.400437
 O         2.354788         0.432953         1.070789
 H        -0.398727        -0.557602         1.087241
 H        -0.143914         1.283608         0.464923
 H        -0.744900         0.097787        -0.665012
 H         1.266294         0.584859        -1.924603
 H         2.166907         1.817677        -1.049661
 H         4.028983         0.278347        -1.908129
 H         2.129525        -1.771465        -2.321264
 H         3.764181        -2.142442        -1.516187
 H         1.562775        -3.228104         0.199978
 H         4.240925        -0.577549         1.105458
