19
Iteration:  1564charge 0 multiplicity 1
 C         0.025536         0.188779         0.577735
 C         1.417270         0.100390         0.092859
 C         2.024154         0.730001        -1.160468
 C         3.385625        -0.162010        -1.215717
 C         2.600206        -1.508542        -1.520605
 C         2.064814        -1.337773        -0.109059
 O         1.450370        -2.387643         0.513834
 C         3.261620        -0.503520         0.274230
 O         2.538025         0.438418         1.043613
 H         0.029825        -0.725203         1.275355
 H        -0.152062         1.163151         1.145659
 H        -0.785021         0.131045        -0.118425
 H         1.733116         0.508973        -2.157123
 H         2.205952         1.806709        -0.842207
 H         4.207457         0.200574        -1.803835
 H         1.943965        -1.684998        -2.404690
 H         3.272941        -2.395948        -1.323525
 H         2.193451        -3.079049         0.587987
 H         4.116711        -0.980644         0.790418
