19
Iteration:   699
 C         0.007515         0.173946         0.394601
 C         1.382154         0.014709        -0.087367
 C         2.067349         0.752059        -1.189551
 C         3.339226        -0.131309        -1.109111
 C         2.768567        -1.465979        -1.509358
 C         2.119663        -1.365799        -0.107864
 O         1.577333        -2.423882         0.643514
 C         3.235199        -0.467007         0.386449
 O         2.339083         0.417474         1.096490
 H        -0.050435        -0.557158         1.248364
 H        -0.326311         1.275346         0.735876
 H        -0.683180        -0.126127        -0.427125
 H         1.429401         0.720692        -2.196681
 H         2.166035         1.855440        -1.045869
 H         4.148019         0.510726        -1.547316
 H         2.037516        -1.461153        -2.385339
 H         3.436024        -2.394812        -1.549773
 H         1.956102        -3.274276         0.268250
 H         4.122110        -0.735646         1.072006
