19
Iteration:  3364
 C        -0.112161         0.278728         0.384455
 C         1.330384         0.041362         0.079411
 C         2.085409         0.761915        -1.183894
 C         3.338940        -0.103140        -1.142381
 C         2.840013        -1.537331        -1.503374
 C         2.116999        -1.409011        -0.081535
 O         1.582903        -2.566080         0.515435
 C         3.328093        -0.419843         0.395804
 O         2.351482         0.419600         1.083763
 H        -0.411962        -0.465775         1.157866
 H        -0.266605         1.283660         0.858133
 H        -0.630078         0.281841        -0.655633
 H         1.606599         0.512285        -2.182785
 H         2.418681         1.824336        -0.963613
 H         4.279732         0.311340        -1.478744
 H         2.173101        -1.565003        -2.426613
 H         3.611985        -2.367517        -1.454115
 H         0.637862        -2.415576         0.841438
 H         4.435358        -0.579281         0.677619
