19
Iteration:  2275charge 0 multiplicity 1
 C        -0.079078         0.291443         0.381326
 C         1.475219         0.039870         0.094713
 C         1.941063         0.720899        -1.208119
 C         3.311382        -0.135026        -1.213315
 C         2.764219        -1.449258        -1.509409
 C         2.117782        -1.373151        -0.036718
 O         1.564382        -2.471931         0.574941
 C         3.380015        -0.491984         0.337182
 O         2.455910         0.385514         1.125293
 H        -0.258464        -0.069697         1.349528
 H        -0.564032         1.274137         0.423994
 H        -0.653260        -0.324533        -0.268215
 H         1.374694         0.399059        -2.069516
 H         2.131209         1.796297        -0.938787
 H         4.173686         0.366181        -1.809766
 H         2.216814        -1.625704        -2.489360
 H         3.460341        -2.284785        -1.522094
 H         0.630253        -2.524988         0.384258
 H         4.183276        -1.021264         0.934998
