19
Iteration:  3928
 C        -0.035702         0.196734         0.265913
 C         1.429882         0.021640        -0.120865
 C         2.052699         0.816607        -1.251437
 C         3.344420        -0.065745        -1.112799
 C         2.843767        -1.452831        -1.450406
 C         2.122430        -1.448707        -0.131744
 O         1.530313        -2.444838         0.594086
 C         3.245887        -0.534855         0.468887
 O         2.378875         0.384407         1.166242
 H        -0.404785        -0.683435         0.691378
 H        -0.211916         1.027579         0.981606
 H        -0.686926         0.191884        -0.634878
 H         1.354030         0.476973        -2.048901
 H         2.172006         1.890045        -0.887513
 H         4.143833         0.295601        -1.647339
 H         2.198456        -1.672997        -2.290793
 H         3.582786        -2.368272        -1.347925
 H         1.039837        -1.957209         1.360359
 H         4.165205        -0.794435         0.987542
