19
Iteration:  3433charge 0 multiplicity 1
 C        -0.130903         0.284011         0.333127
 C         1.437790         0.093006         0.047317
 C         2.072888         0.816439        -1.199598
 C         3.275112        -0.076300        -1.196618
 C         2.848563        -1.509747        -1.499940
 C         2.177747        -1.410828        -0.095764
 O         1.563811        -2.560196         0.512321
 C         3.268991        -0.545570         0.459247
 O         2.398655         0.401284         1.132137
 H        -0.430146        -0.052821         1.458276
 H        -0.184862         1.362434         0.244929
 H        -0.720081        -0.240874        -0.433543
 H         1.509478         0.516566        -2.107357
 H         2.200302         1.821747        -0.915603
 H         4.280930         0.286684        -1.618788
 H         2.029545        -1.861699        -2.252552
 H         3.671882        -2.164587        -1.516174
 H         0.627821        -2.427430         0.939490
 H         4.155846        -0.679133         1.056587
