19
Iteration:  4483
 C        -0.076876         0.491421         0.444251
 C         1.308630         0.034712        -0.003958
 C         2.066039         0.718764        -1.195859
 C         3.419285        -0.168323        -1.089739
 C         2.853707        -1.543331        -1.477555
 C         2.130892        -1.391092        -0.198514
 O         1.660309        -2.498841         0.526936
 C         3.177134        -0.552996         0.453348
 O         2.297651         0.409625         1.090560
 H        -0.120091         0.298446         1.502563
 H        -0.463682         1.486797         0.123937
 H        -0.786253        -0.269500         0.054906
 H         1.634590         0.564307        -2.223477
 H         2.264158         1.825511        -1.064444
 H         4.305163         0.204042        -1.555214
 H         2.215048        -1.734078        -2.356383
 H         3.657902        -2.253467        -1.315551
 H         1.385050        -3.098332        -0.149124
 H         3.970882        -0.832095         1.262653
