19
Iteration:  2114
 C         0.030954         0.226427         0.474797
 C         1.373917         0.088122        -0.014358
 C         2.114285         0.795602        -1.174899
 C         3.343512        -0.101833        -1.151254
 C         2.650379        -1.537648        -1.568068
 C         2.194435        -1.448507        -0.152599
 O         1.473744        -2.481506         0.619568
 C         3.259529        -0.495516         0.372821
 O         2.370629         0.410668         1.047480
 H         0.045194        -0.185963         1.446135
 H        -0.259441         1.277321         0.737366
 H        -0.715969        -0.151372        -0.316525
 H         1.448674         0.899406        -2.040383
 H         2.380436         1.850405        -0.975901
 H         4.183275         0.349920        -1.741428
 H         2.030447        -1.621809        -2.406415
 H         3.385906        -2.315847        -1.826593
 H         2.108553        -2.607697         1.401423
 H         4.207705        -0.849590         0.949804
