19
Iteration:  3247
 C        -0.068883         0.349702         0.297250
 C         1.377505        -0.062674         0.054173
 C         1.996450         0.649592        -1.119481
 C         3.335011        -0.082458        -1.143179
 C         2.825845        -1.477507        -1.460049
 C         2.131780        -1.377004        -0.111997
 O         1.570659        -2.457334         0.509983
 C         3.275781        -0.443538         0.449924
 O         2.363701         0.430378         1.110033
 H        -0.568353         0.054486         1.282126
 H        -0.202406         1.374964         0.194650
 H        -0.678799        -0.088216        -0.504375
 H         1.486922         0.378089        -2.066443
 H         2.220127         1.656961        -0.888695
 H         4.295624         0.077499        -1.712017
 H         2.107534        -1.563801        -2.401756
 H         3.645181        -2.203396        -1.491157
 H         2.084864        -3.320517         0.290125
 H         4.110098        -0.768957         1.124287
