19
Iteration:  3375
 C        -0.076091         0.348961         0.407189
 C         1.411187         0.078299        -0.010490
 C         2.036059         0.754843        -1.226264
 C         3.367645        -0.101502        -1.154963
 C         2.862571        -1.479314        -1.497420
 C         2.118117        -1.420467        -0.104631
 O         1.610938        -2.628700         0.564117
 C         3.269904        -0.465530         0.441359
 O         2.337510         0.378688         1.079697
 H        -0.415121        -0.307759         1.220315
 H        -0.255442         1.388786         0.780671
 H        -0.872972         0.169767        -0.408281
 H         1.633021         0.832397        -2.279372
 H         2.112317         1.853011        -0.942439
 H         4.126787         0.366848        -1.751668
 H         2.096914        -1.663872        -2.316222
 H         3.694066        -2.221619        -1.540361
 H         0.725309        -2.416933         0.789228
 H         4.051166        -0.759642         1.230079
