19
Iteration:  3943charge 0 multiplicity 1
 C        -0.012761         0.176928         0.244303
 C         1.449467         0.030027         0.089385
 C         2.024541         0.704795        -1.139285
 C         3.347075        -0.039519        -1.225748
 C         2.886368        -1.545332        -1.541205
 C         2.165522        -1.378069        -0.108665
 O         1.486569        -2.434464         0.620523
 C         3.229799        -0.491580         0.478366
 O         2.329772         0.386559         1.103657
 H        -0.558379        -0.661378         0.771149
 H        -0.090509         1.069056         0.817431
 H        -0.438569         0.387041        -0.705279
 H         1.567113         0.673469        -2.111467
 H         2.089869         1.799177        -1.106795
 H         4.349842         0.437138        -1.571173
 H         2.277799        -1.540036        -2.472556
 H         3.732455        -2.143415        -1.627673
 H         0.795866        -2.020491         1.133711
 H         4.068576        -0.892886         1.065638
