19
Iteration:  4290
 C        -0.015841         0.263614         0.353849
 C         1.448384         0.101275        -0.011329
 C         2.075906         0.750690        -1.225341
 C         3.410153        -0.100993        -1.094312
 C         2.817918        -1.583171        -1.456673
 C         2.143827        -1.392933        -0.107014
 O         1.490309        -2.472009         0.469479
 C         3.212414        -0.464680         0.477585
 O         2.277224         0.469728         1.131987
 H        -0.077949        -0.173657         1.401297
 H        -0.562517         1.217949         0.175966
 H        -0.679216        -0.406509        -0.199715
 H         1.435553         0.626943        -2.038722
 H         2.267720         1.803097        -1.020242
 H         4.423101         0.170379        -1.437034
 H         2.303529        -1.857842        -2.344951
 H         3.652485        -2.359309        -1.283395
 H         1.760677        -3.390658         0.145258
 H         4.012639        -0.635760         1.078744
