19
Iteration:  2147
 C        -0.003294         0.271373         0.563723
 C         1.424615         0.076688         0.048569
 C         2.024154         0.715926        -1.179945
 C         3.346456        -0.102424        -1.185337
 C         2.767128        -1.584661        -1.547260
 C         2.089962        -1.380881        -0.214457
 O         1.501165        -2.425362         0.531999
 C         3.242632        -0.497438         0.389402
 O         2.400745         0.445473         1.062012
 H        -0.315287        -0.543653         1.183403
 H        -0.145053         1.274998         1.000470
 H        -0.837065         0.098670        -0.223082
 H         1.476141         0.590336        -2.138179
 H         2.356998         1.766741        -1.197970
 H         4.265765         0.255542        -1.700370
 H         2.281087        -1.656545        -2.458920
 H         3.461464        -2.356062        -1.196360
 H         2.214833        -2.737280         1.154019
 H         4.040553        -1.157224         0.912168
