19
Iteration:  4266
 C        -0.108458         0.067887         0.348470
 C         1.425179         0.062156        -0.033827
 C         2.168433         0.797496        -1.204171
 C         3.401566        -0.057868        -1.044423
 C         2.812010        -1.472829        -1.492320
 C         2.103723        -1.360181        -0.109201
 O         1.393498        -2.403473         0.593627
 C         3.242348        -0.518765         0.469484
 O         2.403635         0.444925         1.036496
 H        -0.262404        -0.168670         1.398803
 H        -0.619142         0.990585        -0.060972
 H        -0.744810        -0.703625        -0.203491
 H         1.721281         0.736276        -2.222351
 H         2.535255         1.822955        -0.972378
 H         4.263785         0.278676        -1.537208
 H         2.341047        -1.464124        -2.509578
 H         3.605452        -2.337730        -1.469897
 H         1.733232        -3.336234         0.559545
 H         4.063970        -0.851480         1.072681
