19
Iteration:   404charge 0 multiplicity 1
 C        -0.041070         0.189792         0.428828
 C         1.351019         0.023546         0.033005
 C         2.041000         0.679478        -1.244950
 C         3.407884        -0.079085        -1.128908
 C         2.812594        -1.439387        -1.624812
 C         2.119291        -1.402790        -0.185260
 O         1.574829        -2.425429         0.577555
 C         3.251003        -0.517620         0.432863
 O         2.327443         0.444564         1.122188
 H        -0.265848        -0.471072         1.320015
 H        -0.198385         1.261801         0.729876
 H        -0.621751        -0.275251        -0.298054
 H         1.459138         0.550873        -2.246506
 H         2.185849         1.827157        -0.958640
 H         4.262765         0.335204        -1.514108
 H         1.909506        -1.462982        -2.217081
 H         3.489562        -2.287910        -1.839841
 H         1.959155        -2.385979         1.469813
 H         4.017082        -1.008791         1.164773
