19
Iteration:   386
 C        -0.046045         0.183748         0.400092
 C         1.371588         0.044189        -0.007264
 C         1.996965         0.765844        -1.194051
 C         3.305365        -0.050102        -1.127864
 C         2.826282        -1.508266        -1.503956
 C         2.118931        -1.371713        -0.150613
 O         1.529474        -2.410054         0.606984
 C         3.260017        -0.524551         0.381045
 O         2.402361         0.350741         1.086842
 H        -0.296352        -0.440268         1.265749
 H        -0.180113         1.277514         0.618745
 H        -0.692320        -0.087646        -0.472582
 H         1.411285         0.486382        -2.036544
 H         1.977213         1.832434        -1.150055
 H         4.291580         0.473376        -1.567633
 H         2.485267        -1.393733        -2.572702
 H         3.717051        -2.106359        -1.358364
 H         2.081962        -2.990516         1.116578
 H         4.226536        -0.738310         0.828763
