19
Iteration:  3289charge 0 multiplicity 1
 C        -0.073118         0.196520         0.329508
 C         1.380808         0.084167        -0.012044
 C         2.095260         0.808233        -1.184394
 C         3.366101        -0.140634        -1.156217
 C         2.809174        -1.463913        -1.476416
 C         2.153817        -1.432937        -0.143816
 O         1.542693        -2.413035         0.571444
 C         3.188931        -0.562883         0.455216
 O         2.337628         0.408717         1.053921
 H        -0.269867        -0.417408         1.264453
 H        -0.102757         1.244533         0.682632
 H        -0.887420        -0.102670        -0.394784
 H         1.477094         0.778867        -2.072155
 H         2.307107         1.713639        -0.697851
 H         4.175729         0.427980        -1.574345
 H         2.247953        -1.778420        -2.413198
 H         3.541726        -2.201626        -1.479134
 H         2.216508        -2.750902         1.175355
 H         4.086672        -0.871164         1.095522
