19
Iteration:  1887charge 0 multiplicity 1
 C         0.102539         0.267190         0.452691
 C         1.480106         0.006631         0.093701
 C         1.948520         0.811569        -1.137543
 C         3.255950        -0.113914        -1.221778
 C         2.711135        -1.455008        -1.545316
 C         2.106111        -1.403795        -0.079559
 O         1.473912        -2.479222         0.513289
 C         3.348277        -0.526100         0.311034
 O         2.454048         0.357544         1.081519
 H        -0.167397        -0.221703         1.400730
 H        -0.020021         1.312029         0.598692
 H        -0.664979        -0.379442        -0.084581
 H         1.216255         0.621687        -2.015950
 H         2.101916         1.899968        -1.065253
 H         4.089618         0.299009        -1.840407
 H         1.920055        -1.773977        -2.251434
 H         3.485457        -2.225669        -1.543260
 H         1.325845        -2.030654         1.335567
 H         4.372473        -0.763553         0.805869
