19
Iteration:  4804
 C         0.042503         0.504477         0.373385
 C         1.376082         0.041841         0.101570
 C         2.067492         0.790484        -1.204732
 C         3.321203        -0.128608        -1.164769
 C         2.766007        -1.481461        -1.506358
 C         2.084269        -1.422991        -0.136238
 O         1.644381        -2.592887         0.491917
 C         3.244187        -0.498909         0.425881
 O         2.358223         0.272018         1.174197
 H        -0.379776         0.139664         1.324805
 H         0.078330         1.603692         0.467594
 H        -0.739404         0.365983        -0.483988
 H         1.376985         0.536560        -2.032385
 H         2.037534         1.896530        -0.994924
 H         4.272952         0.184316        -1.700917
 H         2.280676        -1.329572        -2.620523
 H         3.433855        -2.460052        -1.459565
 H         0.632724        -2.741416         0.548932
 H         4.086960        -0.897002         0.974276
