19
Iteration:  1543
 C         0.057609         0.172985         0.553591
 C         1.490626         0.092272         0.074474
 C         2.010345         0.869947        -1.201644
 C         3.240542        -0.172336        -1.278443
 C         2.624704        -1.544075        -1.507477
 C         2.121084        -1.428139        -0.086023
 O         1.438611        -2.419454         0.546689
 C         3.325225        -0.532625         0.407937
 O         2.507846         0.470177         1.065074
 H        -0.103039        -0.637831         1.334930
 H        -0.162200         1.239801         0.890187
 H        -0.582848         0.070414        -0.307562
 H         1.275075         0.728981        -2.030706
 H         2.428112         1.930976        -1.126408
 H         4.156017         0.129231        -1.828486
 H         2.035302        -1.457785        -2.332564
 H         3.397872        -2.337333        -1.508461
 H         1.598415        -3.251362         0.138276
 H         4.306022        -0.882234         0.778912
