19
Iteration:   216charge 0 multiplicity 1
 C        -0.002901         0.138479         0.406940
 C         1.426676         0.046225        -0.025015
 C         2.084579         0.807348        -1.199979
 C         3.370509        -0.052278        -1.270349
 C         2.828235        -1.537447        -1.388986
 C         2.060874        -1.366791        -0.084565
 O         1.546705        -2.604955         0.459129
 C         3.282771        -0.395937         0.438595
 O         2.283233         0.456988         1.091733
 H        -0.226352        -0.378957         1.338116
 H        -0.221829         1.161585         0.666563
 H        -0.891045        -0.231385        -0.201867
 H         1.487833         0.883699        -2.187728
 H         2.386196         1.825805        -0.835179
 H         4.226553         0.281733        -1.620368
 H         2.133923        -1.667454        -2.183212
 H         3.548997        -2.408428        -1.404538
 H         1.458508        -2.356733         1.361432
 H         4.143366        -0.586744         1.063695
