19
Iteration:   328
 C        -0.004345         0.165393         0.425065
 C         1.367089         0.090752         0.018337
 C         2.053026         0.727879        -1.298445
 C         3.404578        -0.024187        -1.097396
 C         2.722224        -1.470068        -1.448539
 C         2.054023        -1.364523        -0.077612
 O         1.640140        -2.590245         0.607183
 C         3.292821        -0.462513         0.409928
 O         2.351621         0.477647         1.039068
 H        -0.230583        -0.636559         1.196800
 H        -0.296860         1.167201         0.852708
 H        -0.506201        -0.122810        -0.467465
 H         1.560606         0.473558        -2.255319
 H         1.980414         1.857474        -1.146555
 H         4.281298         0.451162        -1.413596
 H         2.211301        -1.387798        -2.428403
 H         3.274981        -2.384296        -1.480095
 H         0.939532        -2.909549        -0.050109
 H         4.185378        -0.822353         1.023023
