19
Iteration:  3287charge 0 multiplicity 1
 C        -0.071172         0.202120         0.326834
 C         1.373311         0.090282        -0.005651
 C         2.082543         0.803265        -1.195570
 C         3.359529        -0.130869        -1.148719
 C         2.802727        -1.454756        -1.471313
 C         2.161242        -1.443808        -0.159991
 O         1.547587        -2.425949         0.579301
 C         3.183542        -0.559232         0.467749
 O         2.347180         0.400443         1.056451
 H        -0.235808        -0.374423         1.217772
 H        -0.076598         1.311063         0.662703
 H        -0.881019        -0.124060        -0.415410
 H         1.479551         0.832351        -2.121721
 H         2.320337         1.830795        -0.757069
 H         4.188200         0.327897        -1.577952
 H         2.233225        -1.797172        -2.309484
 H         3.622803        -2.169617        -1.516524
 H         2.200896        -2.782827         1.125969
 H         4.060421        -0.894707         1.095462
