19
Iteration:  2925
 C        -0.021011         0.292089         0.388868
 C         1.339272         0.027326        -0.028105
 C         2.056823         0.804047        -1.222687
 C         3.300352        -0.113492        -1.139487
 C         2.833052        -1.600683        -1.492289
 C         2.054617        -1.362641        -0.124682
 O         1.656980        -2.517861         0.512068
 C         3.208501        -0.560274         0.451907
 O         2.347807         0.455391         1.083406
 H        -0.224027        -0.188441         1.365395
 H         0.038725         1.449247         0.632443
 H        -0.861724         0.012827        -0.205552
 H         1.541580         0.974407        -2.162569
 H         2.135232         1.898659        -0.940835
 H         4.193090         0.352199        -1.577684
 H         2.113528        -1.821330        -2.328398
 H         3.791975        -2.165116        -1.425848
 H         1.881734        -2.592789         1.402873
 H         3.986797        -0.927822         1.042728
