19
Iteration:  2137
 C         0.008534         0.205182         0.576800
 C         1.338205         0.090551         0.002550
 C         2.092254         0.799529        -1.301407
 C         3.400664        -0.155009        -1.159415
 C         2.738217        -1.506974        -1.511157
 C         2.028028        -1.326733        -0.118534
 O         1.529144        -2.447691         0.562100
 C         3.238400        -0.576821         0.340204
 O         2.387604         0.409442         1.068362
 H        -0.127301        -0.367841         1.476611
 H        -0.081195         1.227695         0.935513
 H        -0.671160         0.148386        -0.336066
 H         1.558305         0.762068        -2.276370
 H         2.083833         1.811955        -0.953875
 H         4.202498         0.218968        -1.752337
 H         2.316887        -1.782599        -2.434135
 H         3.584090        -2.208697        -1.525560
 H         2.203708        -2.716889         1.191041
 H         4.058511        -1.002255         0.975787
