19
Iteration:  2208
 C        -0.064882         0.251178         0.476815
 C         1.402565         0.070955         0.042443
 C         2.023827         0.758013        -1.225455
 C         3.272710        -0.195199        -1.132317
 C         2.716265        -1.506275        -1.521686
 C         2.173106        -1.370403        -0.135193
 O         1.553205        -2.402737         0.602399
 C         3.312065        -0.517259         0.341914
 O         2.409643         0.446205         1.103267
 H        -0.285392        -0.524298         1.199285
 H        -0.325527         1.207737         0.990097
 H        -0.572448         0.192160        -0.459424
 H         1.468722         0.737391        -2.174261
 H         2.409447         1.835966        -1.017959
 H         4.283168         0.132045        -1.664636
 H         2.212970        -1.648254        -2.561873
 H         3.390543        -2.388425        -1.550472
 H         1.813476        -3.268388         0.230804
 H         4.104434        -1.020931         0.907005
