19
Iteration:   776
 C        -0.054468         0.228226         0.381026
 C         1.354794         0.057510         0.005065
 C         2.013094         0.743418        -1.249649
 C         3.320103        -0.064779        -1.154645
 C         2.848754        -1.467512        -1.509418
 C         2.176153        -1.383028        -0.111076
 O         1.479305        -2.415206         0.606124
 C         3.293446        -0.540806         0.406647
 O         2.373470         0.353045         1.081119
 H        -0.177596        -0.394101         1.276893
 H        -0.187664         1.213039         0.813190
 H        -0.659547        -0.271606        -0.302441
 H         1.379485         0.527943        -2.130346
 H         2.113996         1.785063        -1.027904
 H         4.194400         0.408052        -1.713219
 H         2.127246        -1.545528        -2.356660
 H         3.736062        -2.111587        -1.531284
 H         2.117074        -2.976553         1.141452
 H         4.218284        -0.680379         0.957578
