19
Iteration:   606
 C        -0.053852         0.164388         0.442706
 C         1.360325         0.106644         0.005122
 C         2.019087         0.890719        -1.145001
 C         3.376813        -0.139638        -1.159198
 C         2.835713        -1.586681        -1.546555
 C         2.005342        -1.383291        -0.198187
 O         1.589066        -2.462368         0.611790
 C         3.231589        -0.480347         0.387972
 O         2.361850         0.439867         1.069625
 H        -0.106950        -0.511572         1.307274
 H        -0.423445         1.124185         0.659552
 H        -0.597630        -0.302681        -0.443913
 H         1.531438         0.798134        -2.111706
 H         2.289297         1.980677        -1.080631
 H         4.376016         0.215393        -1.540405
 H         2.425222        -1.850364        -2.510980
 H         3.573720        -2.355742        -1.258653
 H         2.309823        -2.833379         1.063908
 H         4.033898        -0.925103         0.910014
