19
Iteration:  2906charge 0 multiplicity 1
 C        -0.066356         0.310199         0.475378
 C         1.377904         0.117631         0.008776
 C         2.135985         0.760802        -1.211666
 C         3.376498        -0.154505        -1.156118
 C         2.757731        -1.490066        -1.432173
 C         2.095853        -1.453304        -0.142403
 O         1.657562        -2.610978         0.494543
 C         3.202065        -0.438759         0.386792
 O         2.302315         0.452599         1.032300
 H        -0.143383        -0.332945         1.354670
 H        -0.406690         1.410942         0.635236
 H        -0.839073        -0.280999        -0.131489
 H         1.589101         0.803323        -2.209981
 H         2.333611         1.835571        -0.901747
 H         4.310634         0.271037        -1.603137
 H         2.271267        -1.749544        -2.463920
 H         3.364953        -2.375446        -1.229497
 H         1.310038        -2.458077         1.339568
 H         4.231505        -0.583205         0.969499
