19
Iteration:   811charge 0 multiplicity 1
 C        -0.014938         0.210348         0.451172
 C         1.428102         0.033072         0.050629
 C         2.045470         0.739832        -1.220446
 C         3.331520        -0.133920        -1.188012
 C         2.866934        -1.495825        -1.499819
 C         2.087718        -1.404651        -0.055928
 O         1.511725        -2.453863         0.550045
 C         3.251634        -0.479545         0.435624
 O         2.305387         0.483996         1.022948
 H        -0.011752        -0.487404         1.246864
 H        -0.387934         1.201977         0.717735
 H        -0.683808        -0.059076        -0.221698
 H         1.492900         0.784340        -2.189083
 H         2.310944         1.783468        -0.941039
 H         4.199629         0.370166        -1.720422
 H         2.187017        -1.703248        -2.401114
 H         3.573541        -2.299781        -1.542396
 H         2.169791        -3.208026         0.475366
 H         4.046490        -0.657157         1.070551
