19
Iteration:  2102charge 0 multiplicity 1
 C         0.005750         0.244390         0.440970
 C         1.493705         0.060211         0.053164
 C         2.019584         0.806522        -1.133243
 C         3.292715        -0.151500        -1.232870
 C         2.692995        -1.546947        -1.625684
 C         2.100728        -1.419369        -0.086969
 O         1.515905        -2.441705         0.577654
 C         3.311025        -0.515949         0.367284
 O         2.398601         0.427806         1.096181
 H        -0.362644        -0.288201         1.264011
 H        -0.217150         1.345652         0.308774
 H        -0.607321        -0.303491        -0.353536
 H         1.617852         0.687063        -2.122140
 H         2.151075         1.825563        -0.690377
 H         4.260311         0.187562        -1.773589
 H         1.899586        -1.510776        -2.250580
 H         3.508327        -2.252027        -1.748071
 H         1.798713        -2.625568         1.474223
 H         4.254646        -0.737497         1.056181
