19
Iteration:  3737charge 0 multiplicity 1
 C        -0.123801         0.254584         0.355745
 C         1.384088         0.044174        -0.018266
 C         2.037655         0.720637        -1.193152
 C         3.358874        -0.096504        -1.137153
 C         2.987171        -1.555750        -1.473752
 C         2.170481        -1.419279        -0.136318
 O         1.467466        -2.390677         0.558491
 C         3.269122        -0.470016         0.466534
 O         2.301687         0.383942         1.085817
 H        -0.756031        -0.400001         1.042605
 H        -0.013440         1.256526         0.748337
 H        -0.776638         0.334064        -0.507954
 H         1.505593         0.580383        -2.139821
 H         2.190168         1.751931        -0.947044
 H         4.251508         0.411171        -1.684973
 H         2.307903        -1.727275        -2.396911
 H         3.777845        -2.287415        -1.415349
 H         2.046413        -3.116811         0.799196
 H         4.086266        -0.593816         1.170460
