19
Iteration:  1361
 C        -0.040551         0.213293         0.513950
 C         1.413964         0.024686        -0.012923
 C         2.093467         0.829806        -1.279494
 C         3.269766        -0.171083        -1.201708
 C         2.636791        -1.497534        -1.534628
 C         2.139971        -1.384764        -0.061824
 O         1.473916        -2.416536         0.632743
 C         3.330592        -0.446779         0.377718
 O         2.503910         0.369494         1.105569
 H        -0.265209        -0.424681         1.352034
 H        -0.255302         1.146267         1.019977
 H        -0.701126         0.013384        -0.315446
 H         1.514381         0.821186        -2.196054
 H         2.188621         1.847406        -1.082135
 H         4.306720        -0.092588        -1.741609
 H         1.994118        -1.316275        -2.505223
 H         3.404558        -2.252200        -1.584087
 H         1.703752        -3.266332         0.122688
 H         4.271721        -0.697410         0.851566
