19
Iteration:   834
 C        -0.088177         0.176451         0.367579
 C         1.366871         0.062724         0.045497
 C         1.986486         0.781384        -1.294209
 C         3.358995        -0.044304        -1.087858
 C         2.811311        -1.545109        -1.452883
 C         2.085519        -1.375806        -0.083073
 O         1.531523        -2.475207         0.572705
 C         3.250722        -0.473846         0.369103
 O         2.507293         0.451288         1.149732
 H        -0.299747        -0.547715         1.109142
 H        -0.347235         1.226624         0.543865
 H        -0.666624         0.064414        -0.432293
 H         1.420437         0.421884        -2.193578
 H         1.995008         1.918041        -1.384365
 H         4.218245         0.391780        -1.588709
 H         2.155933        -1.973151        -2.314248
 H         3.582575        -2.299884        -1.361088
 H         1.854363        -3.234779         0.150887
 H         4.142363        -0.720773         0.892586
