19
Iteration:  3607charge 0 multiplicity 1
 C        -0.007775         0.180657         0.353804
 C         1.403571         0.044642        -0.062227
 C         2.080258         0.787239        -1.214393
 C         3.361475        -0.063044        -1.150449
 C         2.875793        -1.468029        -1.443768
 C         2.076428        -1.349039        -0.085007
 O         1.541279        -2.476329         0.621896
 C         3.236069        -0.517388         0.440488
 O         2.288705         0.412801         1.100932
 H         0.077737        -0.258293         1.361623
 H        -0.325258         1.145690         0.427543
 H        -0.618452        -0.302339        -0.315722
 H         1.598306         0.697101        -2.282549
 H         2.514276         1.784353        -1.164458
 H         4.338730         0.200568        -1.664403
 H         2.296899        -1.576134        -2.422885
 H         3.618235        -2.220470        -1.372351
 H         0.855812        -2.955209         0.145716
 H         3.986121        -1.039810         1.009821
