19
Iteration:  1834
 C         0.104797         0.294534         0.605954
 C         1.414546         0.093024         0.017252
 C         2.030428         0.757774        -1.227224
 C         3.324130        -0.093826        -1.186815
 C         2.670295        -1.521273        -1.580798
 C         2.024900        -1.362746        -0.097566
 O         1.614025        -2.518468         0.577949
 C         3.205131        -0.542608         0.370799
 O         2.476338         0.382537         1.023627
 H         0.053219        -0.320774         1.590104
 H        -0.100357         1.335383         0.984085
 H        -0.746786        -0.073797        -0.120602
 H         1.361830         0.879436        -2.170779
 H         2.116568         1.881455        -0.993085
 H         4.198523         0.465515        -1.644738
 H         1.996409        -1.774824        -2.426800
 H         3.441465        -2.253553        -1.570644
 H         0.755792        -2.766693         0.278672
 H         4.130653        -0.864680         0.968267
