19
Iteration:  1093
 C        -0.038471         0.204194         0.552905
 C         1.357830         0.045782        -0.015090
 C         2.113146         0.810935        -1.221620
 C         3.326075        -0.112923        -1.178012
 C         2.727344        -1.558425        -1.503675
 C         2.132219        -1.373517        -0.159074
 O         1.581019        -2.488839         0.568926
 C         3.292758        -0.454729         0.384054
 O         2.371427         0.402135         1.070795
 H        -0.032478        -0.529725         1.290090
 H        -0.321719         1.253906         0.716547
 H        -0.774358        -0.192614        -0.169731
 H         1.546424         0.652974        -2.146898
 H         2.308455         1.862273        -1.021663
 H         4.220314         0.261545        -1.719620
 H         2.150265        -1.610980        -2.435427
 H         3.680000        -2.327871        -1.581008
 H         0.760783        -2.305464         1.019364
 H         4.230223        -0.580546         0.839160
