19
Iteration:  3965charge 0 multiplicity 1
 C        -0.112947         0.223513         0.286145
 C         1.349173         0.023831        -0.041914
 C         2.078913         0.729447        -1.160804
 C         3.347793        -0.080589        -1.117407
 C         2.821787        -1.551172        -1.392438
 C         2.137286        -1.397618        -0.139326
 O         1.571031        -2.483477         0.546205
 C         3.313277        -0.457402         0.402033
 O         2.377882         0.398024         1.132469
 H        -0.452389        -0.511092         1.036991
 H        -0.239203         1.185279         0.718618
 H        -0.716920         0.278439        -0.568750
 H         1.644787         0.731314        -2.162274
 H         2.114331         1.806377        -1.044572
 H         4.351146         0.235088        -1.602731
 H         2.329322        -1.399528        -2.374432
 H         3.523186        -2.323707        -1.359117
 H         0.696873        -2.090741         0.875685
 H         4.282318        -0.598089         0.929529
