19
Iteration:  4267charge 0 multiplicity 1
 C        -0.113848         0.073602         0.349929
 C         1.420546         0.078522        -0.034136
 C         2.162335         0.799870        -1.203737
 C         3.392561        -0.065742        -1.044646
 C         2.820691        -1.483553        -1.491777
 C         2.112586        -1.359360        -0.107437
 O         1.399904        -2.406896         0.588284
 C         3.239401        -0.522798         0.480988
 O         2.403457         0.443410         1.030824
 H        -0.258440        -0.192761         1.416510
 H        -0.602934         0.994668        -0.063330
 H        -0.730645        -0.695968        -0.185734
 H         1.765677         0.742892        -2.192464
 H         2.524850         1.817768        -1.005890
 H         4.262295         0.274699        -1.554033
 H         2.333701        -1.431831        -2.459677
 H         3.616710        -2.323553        -1.489332
 H         1.720182        -3.309343         0.543326
 H         4.032875        -0.863065         1.039811
