19
Iteration:   740charge 0 multiplicity 1
 C        -0.099290         0.129006         0.315127
 C         1.390654         0.098911        -0.011118
 C         2.018796         0.730226        -1.128140
 C         3.311037        -0.072886        -1.160542
 C         2.721459        -1.505398        -1.445986
 C         2.149309        -1.352491        -0.078157
 O         1.537591        -2.435125         0.563290
 C         3.314129        -0.472658         0.386176
 O         2.425721         0.404238         1.092976
 H        -0.322455        -0.442397         1.235807
 H        -0.370593         1.131616         0.434573
 H        -0.751932        -0.001887        -0.559359
 H         1.544280         0.832531        -2.057050
 H         2.255501         1.757315        -0.896197
 H         4.186534         0.201135        -1.654952
 H         2.154121        -1.646187        -2.309777
 H         3.552841        -2.266901        -1.481949
 H         2.250228        -3.035175         0.888388
 H         4.345771        -0.853838         0.715760
