19
Iteration:  4076charge 0 multiplicity 1
 C        -0.098376         0.112882         0.287625
 C         1.373258         0.006796        -0.085012
 C         2.158781         0.789679        -1.129643
 C         3.337791        -0.120660        -1.142577
 C         2.783244        -1.438737        -1.431516
 C         2.152352        -1.343188        -0.106200
 O         1.468666        -2.367675         0.601505
 C         3.257058        -0.492529         0.505918
 O         2.370598         0.388435         1.035124
 H        -0.224979        -0.244676         1.295194
 H        -0.435320         1.086349         0.152909
 H        -0.615070        -0.377651        -0.448585
 H         1.749428         0.613601        -2.158737
 H         2.423288         1.795274        -0.919686
 H         4.341097         0.220515        -1.525757
 H         2.209199        -1.515026        -2.368037
 H         3.438229        -2.220113        -1.499749
 H         2.084106        -3.090082         0.562168
 H         3.960479        -0.929603         1.284175
