19
Iteration:  1410
 C        -0.033572         0.208074         0.503409
 C         1.414729         0.158664         0.056958
 C         1.997674         0.728261        -1.233153
 C         3.344283        -0.053143        -1.268240
 C         2.765789        -1.530762        -1.518078
 C         2.073591        -1.341251        -0.145128
 O         1.404669        -2.427446         0.575754
 C         3.299436        -0.560954         0.337679
 O         2.549124         0.328529         1.136335
 H        -0.147534        -0.403811         1.445000
 H        -0.198448         1.161335         1.075974
 H        -0.829891         0.029716        -0.307445
 H         1.444250         0.585720        -2.191262
 H         2.127354         1.872414        -1.282691
 H         4.042256         0.465835        -1.804755
 H         2.101530        -1.640749        -2.305938
 H         3.494647        -2.404270        -1.449577
 H         1.987084        -2.691284         1.260026
 H         4.308818        -0.864432         0.704677
