19
Iteration:  1133charge 0 multiplicity 1
 C        -0.044806         0.290458         0.431809
 C         1.414807         0.138513         0.063342
 C         1.960906         0.739491        -1.164275
 C         3.282652        -0.104361        -1.135357
 C         2.773583        -1.496569        -1.576745
 C         2.105808        -1.446230        -0.116157
 O         1.548901        -2.514978         0.646213
 C         3.339958        -0.459879         0.367078
 O         2.482474         0.389109         1.082390
 H        -0.442640        -0.118493         1.350402
 H        -0.284415         1.326532         0.580426
 H        -0.677865        -0.038898        -0.459483
 H         1.386453         0.339638        -2.082102
 H         2.049124         1.826195        -1.146519
 H         4.164811         0.352885        -1.691584
 H         2.225797        -1.730669        -2.472775
 H         3.484594        -2.263185        -1.667108
 H         1.217960        -3.221661         0.003500
 H         4.320574        -0.560052         0.843576
