19
Iteration:  1404charge 0 multiplicity 1
 C        -0.003789         0.172092         0.535424
 C         1.425718         0.118633         0.026297
 C         1.978297         0.767697        -1.237542
 C         3.311513        -0.118226        -1.215107
 C         2.771019        -1.536197        -1.538490
 C         2.030414        -1.354596        -0.197101
 O         1.411078        -2.386731         0.584530
 C         3.315487        -0.550144         0.380727
 O         2.537025         0.359855         1.115995
 H        -0.139186        -0.526755         1.349791
 H        -0.115635         1.200030         0.895853
 H        -0.711370         0.107132        -0.224069
 H         1.374798         0.667205        -2.145015
 H         2.254286         1.808240        -1.155637
 H         4.219675         0.401547        -1.774823
 H         1.943351        -1.586380        -2.360657
 H         3.597268        -2.213416        -1.426170
 H         2.075487        -2.763043         1.216270
 H         4.318157        -0.821259         0.704613
