19
Iteration:  2278
 C        -0.071166         0.292172         0.375992
 C         1.488938         0.049980         0.114569
 C         1.952548         0.707222        -1.208506
 C         3.312281        -0.110951        -1.225379
 C         2.769641        -1.465675        -1.495868
 C         2.061892        -1.354181        -0.038085
 O         1.576565        -2.480859         0.560428
 C         3.378696        -0.497485         0.336458
 O         2.452512         0.379913         1.131310
 H        -0.185682        -0.126119         1.399292
 H        -0.503912         1.276352         0.398778
 H        -0.723737        -0.360737        -0.324175
 H         1.348818         0.482801        -2.148756
 H         2.100602         1.770850        -1.059745
 H         4.091403         0.290425        -1.761849
 H         2.240991        -1.572535        -2.422328
 H         3.548649        -2.280263        -1.543107
 H         0.608894        -2.509874         0.518355
 H         4.240813        -0.973519         0.912337
