19
Iteration:   101
 C        -0.079662         0.172177         0.299669
 C         1.366708         0.082161        -0.023354
 C         1.998237         0.719048        -1.216338
 C         3.407153        -0.096956        -1.080610
 C         2.799738        -1.473784        -1.482911
 C         2.087546        -1.340503        -0.172179
 O         1.739352        -2.459097         0.605125
 C         3.180868        -0.507846         0.430769
 O         2.360629         0.416083         1.150319
 H        -0.369837        -0.515050         1.123626
 H        -0.325166         1.225864         0.567316
 H        -0.572048        -0.182267        -0.565068
 H         1.509831         0.502848        -2.184076
 H         2.031691         1.816112        -1.044142
 H         4.491327         0.314624        -1.388900
 H         2.141119        -1.536873        -2.411763
 H         3.538500        -2.240286        -1.495339
 H         0.806892        -2.598940         0.542587
 H         3.964852        -0.912409         1.054214
