19
Iteration:  3660
 C        -0.024211         0.202932         0.215615
 C         1.455674        -0.015250        -0.011094
 C         2.077947         0.794146        -1.175657
 C         3.326952        -0.001834        -1.176071
 C         2.781618        -1.498439        -1.471099
 C         2.109797        -1.386279        -0.082956
 O         1.544016        -2.524743         0.577111
 C         3.226820        -0.452107         0.467447
 O         2.376097         0.394848         1.131455
 H        -0.315043        -0.364664         1.160623
 H        -0.332364         1.224696         0.255734
 H        -0.509758        -0.323732        -0.625323
 H         1.514963         0.791157        -2.105571
 H         2.192568         1.834169        -1.015737
 H         4.395559         0.119872        -1.475621
 H         2.184546        -1.805171        -2.403444
 H         3.550965        -2.251081        -1.297488
 H         0.966705        -2.309082         1.301281
 H         4.112303        -0.722428         1.015378
