19
Iteration:  3444
 C         0.028749         0.233927         0.297626
 C         1.410286         0.062502         0.032199
 C         2.013099         0.785431        -1.171950
 C         3.300117        -0.066263        -1.114520
 C         2.764694        -1.569977        -1.452192
 C         2.132519        -1.436235        -0.093558
 O         1.545149        -2.527087         0.477103
 C         3.295780        -0.456874         0.441242
 O         2.405639         0.422710         1.128172
 H        -0.360746        -0.178572         1.357182
 H        -0.380807         1.243723         0.239763
 H        -0.514937        -0.297788        -0.496053
 H         1.437643         0.930013        -2.108374
 H         2.249739         1.798790        -0.940582
 H         4.208141         0.301368        -1.695440
 H         2.253821        -1.611881        -2.481709
 H         3.598155        -2.229005        -1.450698
 H         0.754763        -2.230415         0.995993
 H         4.139207        -0.857290         0.971853
