19
Iteration:  2435
 C        -0.053370         0.286202         0.434219
 C         1.404870         0.096713         0.021321
 C         2.083638         0.682471        -1.216557
 C         3.361382        -0.107476        -1.085582
 C         2.794421        -1.540247        -1.513308
 C         2.094210        -1.404347        -0.184477
 O         1.601420        -2.450904         0.554813
 C         3.207371        -0.458590         0.350074
 O         2.341341         0.351426         1.050043
 H        -0.188984        -0.122118         1.511765
 H        -0.376611         1.380043         0.598189
 H        -0.704430        -0.370680        -0.088183
 H         1.475261         0.638410        -2.142841
 H         2.110754         1.795285        -0.972919
 H         4.365906         0.274983        -1.557893
 H         2.137023        -1.550509        -2.426601
 H         3.640364        -2.221067        -1.429212
 H         1.667960        -2.312662         1.508383
 H         4.013408        -0.746898         0.984601
