19
Iteration:  3842charge 0 multiplicity 1
 C        -0.093763         0.271931         0.283693
 C         1.409328        -0.059473         0.014423
 C         2.078463         0.701079        -1.161178
 C         3.328737        -0.090972        -1.151400
 C         2.965605        -1.508804        -1.519205
 C         2.111614        -1.423666        -0.129833
 O         1.476244        -2.389060         0.529503
 C         3.202951        -0.484734         0.469718
 O         2.356765         0.424345         1.174298
 H        -0.325660         0.041298         1.290301
 H        -0.365675         1.342128         0.159935
 H        -0.762622        -0.197947        -0.459870
 H         1.422612         0.454411        -2.065216
 H         2.252218         1.898836        -1.064774
 H         3.986497         0.567317        -1.625396
 H         2.448706        -1.582814        -2.438399
 H         3.710688        -2.383614        -1.475909
 H         2.083868        -2.915179         1.103535
 H         4.116448        -0.818922         0.984213
