19
Iteration:  4117
 C        -0.091653         0.177863         0.285923
 C         1.390533         0.051898        -0.009939
 C         2.131308         0.740847        -1.227118
 C         3.391881        -0.091007        -1.143194
 C         2.847461        -1.517663        -1.440426
 C         2.119455        -1.364885        -0.023054
 O         1.434948        -2.429987         0.592477
 C         3.269919        -0.444905         0.487399
 O         2.373101         0.429075         1.080617
 H        -0.406496        -0.808535         0.791304
 H        -0.441927         0.985211         0.913108
 H        -0.602879         0.050265        -0.640611
 H         1.569499         0.545281        -2.182578
 H         2.202680         1.848912        -0.984503
 H         4.290712         0.416915        -1.638179
 H         2.236581        -1.742605        -2.401187
 H         3.716012        -2.197635        -1.361445
 H         1.472222        -3.208689         0.027042
 H         4.259955        -0.658166         0.902778
