19
Iteration:   722charge 0 multiplicity 1
 C        -0.052025         0.149270         0.367877
 C         1.398746        -0.074455         0.090952
 C         2.137206         0.863498        -1.233838
 C         3.332922        -0.071364        -1.207177
 C         2.727539        -1.492966        -1.523178
 C         2.183110        -1.440306        -0.079943
 O         1.518072        -2.466068         0.632023
 C         3.286323        -0.439944         0.451162
 O         2.325561         0.443894         1.043884
 H        -0.321085        -0.455557         1.256735
 H        -0.319931         1.315859         0.616451
 H        -0.633618        -0.119726        -0.531328
 H         1.510045         0.980867        -2.258640
 H         2.156436         1.949559        -0.949909
 H         4.359016         0.228832        -1.732681
 H         1.825399        -1.484616        -2.290893
 H         3.460899        -2.299100        -1.784903
 H         2.066518        -3.284833         0.693249
 H         4.165057        -0.566776         1.122486
