19
Iteration:  2334
 C        -0.012686         0.285724         0.492618
 C         1.393866        -0.040065         0.009891
 C         2.114094         0.772373        -1.237139
 C         3.360847        -0.113597        -1.179682
 C         2.717952        -1.513416        -1.556998
 C         2.102702        -1.402639        -0.119900
 O         1.514896        -2.483106         0.609716
 C         3.255474        -0.414371         0.362707
 O         2.339415         0.411967         1.068400
 H        -0.234176        -0.524495         1.280439
 H        -0.043766         1.266650         0.942751
 H        -0.778065         0.153132        -0.337405
 H         1.624198         0.797484        -2.259618
 H         2.178823         1.827988        -1.048225
 H         4.295522         0.212266        -1.510018
 H         2.089427        -1.537743        -2.408940
 H         3.566096        -2.256601        -1.410501
 H         2.312374        -3.012891         0.981846
 H         4.060801        -0.840622         0.999552
