19
Iteration:  3690charge 0 multiplicity 1
 C        -0.147788         0.300016         0.288844
 C         1.344431         0.034256         0.017155
 C         2.151103         0.706325        -1.172510
 C         3.405231        -0.083226        -1.167342
 C         2.801132        -1.513204        -1.515209
 C         2.150948        -1.381775        -0.088919
 O         1.582849        -2.525036         0.519883
 C         3.222050        -0.461889         0.491067
 O         2.314338         0.459173         1.096187
 H        -0.460469        -0.487518         0.993349
 H        -0.489922         1.334749         0.656993
 H        -0.798181        -0.163399        -0.526720
 H         1.669687         0.609113        -2.121050
 H         2.356013         1.757557        -0.981966
 H         4.405638         0.105227        -1.501793
 H         2.181242        -1.637317        -2.381930
 H         3.556384        -2.348972        -1.429023
 H         1.940885        -2.731201         1.458343
 H         4.090652        -0.752527         1.076314
