19
Iteration:  2135charge 0 multiplicity 1
 C         0.002405         0.201136         0.576655
 C         1.349903         0.085249        -0.011547
 C         2.099337         0.814582        -1.310792
 C         3.384110        -0.161130        -1.162613
 C         2.744251        -1.494184        -1.504688
 C         2.015598        -1.328351        -0.107880
 O         1.534558        -2.450005         0.568973
 C         3.229823        -0.578957         0.334183
 O         2.389323         0.400050         1.066245
 H        -0.083650        -0.366629         1.463987
 H        -0.079373         1.275928         0.931354
 H        -0.704513         0.116427        -0.326333
 H         1.587124         0.717989        -2.284713
 H         2.091485         1.840486        -0.879777
 H         4.294840         0.234995        -1.746381
 H         2.266358        -1.745093        -2.402553
 H         3.572358        -2.212909        -1.545942
 H         2.168667        -2.728274         1.194335
 H         4.126561        -0.959018         1.008473
