19
Iteration:  4644
 C        -0.032919         0.489358         0.374776
 C         1.352103         0.034294         0.032302
 C         2.045007         0.713448        -1.159200
 C         3.368337        -0.113045        -1.040366
 C         2.799002        -1.557638        -1.518492
 C         2.002675        -1.441249        -0.168283
 O         1.711305        -2.638177         0.540790
 C         3.199321        -0.528230         0.396850
 O         2.377862         0.504116         1.103725
 H        -0.777737        -0.227606         0.716600
 H         0.198992         1.289098         1.118375
 H        -0.353915         1.014775        -0.609305
 H         1.540553         0.522650        -2.153890
 H         2.155638         1.806027        -0.810386
 H         4.188451         0.413864        -1.445436
 H         2.346194        -1.609396        -2.656597
 H         3.555043        -2.395102        -1.339804
 H         0.867666        -3.001296         0.115527
 H         3.990396        -1.002277         1.087337
