19
Iteration:  1882
 C         0.081307         0.252185         0.486528
 C         1.443164         0.016325         0.076687
 C         1.956457         0.807175        -1.149734
 C         3.261499        -0.110797        -1.237323
 C         2.706892        -1.476009        -1.474886
 C         2.120122        -1.402439        -0.129864
 O         1.483119        -2.496198         0.497707
 C         3.389719        -0.519924         0.327225
 O         2.465620         0.374098         1.080106
 H        -0.059787        -0.164708         1.504008
 H        -0.130809         1.357244         0.602909
 H        -0.555507        -0.261678        -0.202585
 H         1.279547         0.691914        -1.948619
 H         1.981885         1.907184        -1.058050
 H         4.011464         0.228680        -1.926113
 H         1.950720        -1.579044        -2.286897
 H         3.424964        -2.343163        -1.541014
 H         1.093680        -2.048715         1.323904
 H         4.255526        -0.804336         0.839526
