19
Iteration:  2861charge 0 multiplicity 1
 C         0.010896         0.173922         0.331269
 C         1.472197         0.021463         0.082887
 C         1.971865         0.700128        -1.140635
 C         3.273197        -0.015507        -1.176468
 C         2.824927        -1.525700        -1.473965
 C         2.086885        -1.334890        -0.095353
 O         1.488057        -2.438677         0.539162
 C         3.371565        -0.482014         0.389125
 O         2.394583         0.384144         1.073403
 H        -0.319193        -0.382265         1.218767
 H        -0.208542         1.325599         0.275216
 H        -0.562398        -0.277948        -0.476075
 H         1.369730         0.397764        -2.018600
 H         2.051369         1.827436        -0.908210
 H         4.192586         0.340039        -1.615396
 H         2.399974        -1.894574        -2.478802
 H         3.704823        -2.170258        -1.445860
 H         0.721298        -2.250816         1.045127
 H         4.327173        -0.657186         0.942045
