19
Iteration:  3652charge 0 multiplicity 1
 C        -0.075575         0.162776         0.237895
 C         1.450340         0.064913        -0.004660
 C         2.123177         0.753262        -1.189054
 C         3.345338        -0.045209        -1.179942
 C         2.831390        -1.447155        -1.474126
 C         2.127940        -1.436428        -0.096312
 O         1.527816        -2.506344         0.612938
 C         3.262349        -0.498286         0.414843
 O         2.350961         0.413570         1.162719
 H        -0.319491        -0.162475         1.259318
 H        -0.448684         1.146112         0.199581
 H        -0.515344        -0.187604        -0.631602
 H         1.488154         0.594175        -2.164581
 H         2.029668         1.795076        -0.733541
 H         4.220642         0.353694        -1.813444
 H         2.211797        -1.651192        -2.410769
 H         3.574029        -2.210555        -1.403513
 H         0.722245        -2.231861         1.111404
 H         4.138490        -0.776835         1.017672
