19
Iteration:  4723
 C        -0.103482         0.106786         0.328923
 C         1.477410         0.080026         0.056959
 C         2.120286         0.832197        -1.189119
 C         3.363604        -0.122345        -1.110754
 C         2.769939        -1.492583        -1.530665
 C         2.122950        -1.376466        -0.122625
 O         1.268732        -2.352627         0.485074
 C         3.307220        -0.563589         0.431262
 O         2.543344         0.414271         1.150821
 H        -0.211670        -0.294532         1.396540
 H        -0.528917         1.172324         0.265501
 H        -0.504805        -0.574989        -0.398966
 H         1.531982         0.734945        -2.113204
 H         2.016608         1.860803        -0.912255
 H         4.401945         0.183990        -1.416528
 H         1.882343        -1.591869        -2.366662
 H         3.422398        -2.362016        -1.531189
 H         1.998015        -2.894511         0.897528
 H         4.236171        -0.946118         0.977223
