19
Iteration:  4783
 C         0.002406         0.406272         0.432038
 C         1.374034         0.097729         0.024326
 C         2.097283         0.763304        -1.134731
 C         3.318846        -0.109603        -1.134309
 C         2.797095        -1.495950        -1.512102
 C         2.049478        -1.403655        -0.228049
 O         1.576108        -2.539729         0.488747
 C         3.273656        -0.614584         0.404023
 O         2.384627         0.356181         1.118944
 H        -0.164325         0.129794         1.466226
 H        -0.262221         1.447761         0.329859
 H        -0.790938        -0.151520        -0.177545
 H         1.698564         0.679027        -2.179298
 H         2.236772         1.814296        -0.730689
 H         4.211622         0.444385        -1.364664
 H         2.113366        -1.685506        -2.410586
 H         3.689146        -2.231641        -1.462688
 H         0.815453        -2.289156         0.964909
 H         4.066269        -1.116172         0.962532
