19
Iteration:  2930charge 0 multiplicity 1
 C        -0.039417         0.325144         0.367599
 C         1.391965         0.020326         0.016124
 C         2.031694         0.797030        -1.236924
 C         3.303864        -0.089745        -1.130008
 C         2.814931        -1.558212        -1.510904
 C         2.096830        -1.413740        -0.144947
 O         1.622262        -2.483860         0.535313
 C         3.210892        -0.570999         0.445184
 O         2.349151         0.431560         1.088423
 H        -0.248125        -0.278269         1.268055
 H         0.031358         1.367837         0.570996
 H        -0.959719         0.038195        -0.254457
 H         1.485914         0.823328        -2.239099
 H         2.071903         1.829373        -0.894276
 H         4.207184         0.436507        -1.484564
 H         2.219126        -1.943488        -2.402704
 H         3.667487        -2.233311        -1.431073
 H         1.987703        -2.660326         1.468502
 H         4.197308        -0.828634         1.079060
