19
Iteration:  4046charge 0 multiplicity 1
 C         0.004139         0.266657         0.250464
 C         1.390730         0.060032        -0.004285
 C         2.046830         0.754636        -1.141163
 C         3.300853        -0.050153        -1.139935
 C         2.910139        -1.547283        -1.506545
 C         2.149892        -1.375947        -0.152377
 O         1.426406        -2.480568         0.564162
 C         3.241826        -0.455030         0.391069
 O         2.345101         0.376236         1.183431
 H        -0.312386         0.115578         1.290391
 H        -0.311708         1.308309        -0.136199
 H        -0.413474        -0.683432        -0.308214
 H         1.443614         0.427592        -1.980155
 H         2.237027         1.785660        -0.988380
 H         4.244316         0.389993        -1.341325
 H         2.382294        -1.672157        -2.438585
 H         3.700399        -2.340313        -1.356972
 H         2.042822        -2.895321         1.207452
 H         4.036217        -0.764054         1.064005
