19
Iteration:  3511
 C        -0.045635         0.219315         0.366939
 C         1.434299        -0.046565         0.009121
 C         2.115411         0.781482        -1.165332
 C         3.347518        -0.103023        -1.115297
 C         2.827067        -1.499353        -1.461812
 C         2.070067        -1.365815        -0.212249
 O         1.485854        -2.431561         0.580901
 C         3.282400        -0.488938         0.395873
 O         2.299155         0.410235         1.058626
 H        -0.332003        -0.551166         1.231341
 H        -0.253636         1.263287         0.774868
 H        -0.486277         0.249335        -0.622978
 H         1.665154         0.678252        -2.187828
 H         2.197760         1.830805        -0.808477
 H         4.132675         0.420543        -1.676425
 H         2.285793        -1.625360        -2.446970
 H         3.604879        -2.274238        -1.186010
 H         2.181103        -2.802727         1.204732
 H         3.997613        -0.977840         1.015049
