19
Iteration:  2981charge 0 multiplicity 1
 C        -0.005893         0.146667         0.348466
 C         1.388437         0.046661        -0.027222
 C         2.029833         0.819211        -1.134339
 C         3.299242        -0.146552        -1.129893
 C         2.772768        -1.526515        -1.433484
 C         2.139839        -1.366979        -0.135731
 O         1.505981        -2.361043         0.582897
 C         3.248136        -0.484162         0.432935
 O         2.417291         0.402867         1.054784
 H        -0.349388        -0.763286         0.836636
 H        -0.243626         1.237021         0.665501
 H        -0.484369         0.113150        -0.659798
 H         1.421517         0.579894        -2.028434
 H         2.239744         1.901411        -0.876625
 H         4.212543         0.236969        -1.648202
 H         2.126316        -1.777134        -2.354675
 H         3.574745        -2.214316        -1.649036
 H         2.032967        -3.182929         0.850078
 H         4.159781        -0.817744         0.957978
