19
Iteration:   267
 C         0.001283         0.227944         0.294968
 C         1.426055        -0.040746         0.002582
 C         2.015094         0.749047        -1.176545
 C         3.248494        -0.013462        -1.187707
 C         2.783346        -1.441843        -1.527839
 C         2.097159        -1.424009        -0.073930
 O         1.637238        -2.513205         0.642780
 C         3.284174        -0.449612         0.364419
 O         2.372103         0.356954         1.186328
 H        -0.391006        -0.223015         1.206816
 H        -0.327693         1.270432         0.303319
 H        -0.654415        -0.153349        -0.544107
 H         1.557173         0.604077        -2.190052
 H         2.145630         1.789863        -0.915763
 H         4.254430         0.406017        -1.793846
 H         2.322092        -1.551607        -2.561463
 H         3.707785        -2.039896        -1.414920
 H         0.697213        -2.329126         0.765489
 H         4.212479        -0.734130         0.877891
