19
Iteration:   355charge 0 multiplicity 1
 C        -0.042197         0.168987         0.406376
 C         1.340860         0.022221         0.040780
 C         1.998301         0.778210        -1.192821
 C         3.249877        -0.117544        -1.257976
 C         2.834600        -1.575535        -1.438110
 C         2.216451        -1.401916        -0.066033
 O         1.532333        -2.451097         0.542474
 C         3.296614        -0.424417         0.462502
 O         2.387489         0.479005         1.100153
 H        -0.498999        -0.455375         1.141569
 H        -0.054168         1.216008         0.693807
 H        -0.583899        -0.064592        -0.588422
 H         1.286798         0.920058        -2.003355
 H         2.280612         1.714380        -0.810876
 H         4.257306         0.403387        -1.720979
 H         2.325332        -1.669262        -2.475491
 H         3.662282        -2.372785        -1.431434
 H         1.557299        -3.213308        -0.109074
 H         4.248554        -0.487912         0.914187
