19
Iteration:  1819
 C         0.031517         0.334024         0.591278
 C         1.426677         0.007769        -0.005571
 C         2.003307         0.803231        -1.190043
 C         3.217342        -0.083436        -1.244690
 C         2.711141        -1.475872        -1.536683
 C         2.145486        -1.440216        -0.182114
 O         1.578038        -2.431867         0.655325
 C         3.299865        -0.568810         0.303946
 O         2.431899         0.359144         1.120565
 H        -0.200120        -0.257543         1.456642
 H         0.148507         1.365029         0.805832
 H        -0.837021         0.161788        -0.060434
 H         1.510469         0.605691        -2.147419
 H         2.256672         1.809332        -0.988410
 H         4.160894         0.106751        -1.661823
 H         2.072977        -1.467895        -2.425270
 H         3.451124        -2.345940        -1.590789
 H         0.952308        -2.934821         0.069946
 H         4.239992        -0.964016         0.641095
