19
Iteration:  2691
 C        -0.000598         0.049707         0.387928
 C         1.442730         0.143427         0.012427
 C         2.046384         0.793331        -1.206772
 C         3.302839        -0.087117        -1.285465
 C         2.802491        -1.529155        -1.399520
 C         2.188067        -1.391539        -0.035464
 O         1.385813        -2.426718         0.550641
 C         3.283300        -0.455172         0.484222
 O         2.395910         0.487907         1.056375
 H        -0.326579        -0.598935         1.230279
 H        -0.478164         1.001396         0.488712
 H        -0.503271        -0.550927        -0.508545
 H         1.597773         0.847689        -2.223277
 H         2.276843         1.844444        -1.114186
 H         4.246503         0.397784        -1.695809
 H         2.160984        -1.885726        -2.236131
 H         3.600703        -2.343847        -1.203438
 H         1.843302        -3.288261         0.334220
 H         4.220961        -0.836841         1.071948
