19
Iteration:  2782charge 0 multiplicity 1
 C        -0.132139         0.323219         0.317059
 C         1.349234         0.088806         0.036658
 C         2.006364         0.758070        -1.156259
 C         3.293130        -0.094663        -1.160113
 C         2.828759        -1.500377        -1.477356
 C         2.183192        -1.442007        -0.134821
 O         1.588550        -2.535170         0.566441
 C         3.304261        -0.522324         0.448152
 O         2.377850         0.404588         1.079135
 H        -0.619282        -0.280898         1.124579
 H        -0.184459         1.397947         0.688607
 H        -0.631503         0.182500        -0.637784
 H         1.567598         0.655206        -2.123720
 H         2.213102         1.845183        -1.238049
 H         4.066149         0.210385        -1.862468
 H         2.176478        -1.508091        -2.319218
 H         3.705244        -2.230989        -1.420258
 H         2.144309        -2.872109         1.235182
 H         4.039422        -0.807906         1.086186
