19
Iteration:  2622charge 0 multiplicity 1
 C        -0.068316         0.279107         0.362873
 C         1.321770         0.117867        -0.041621
 C         2.109423         0.788356        -1.224864
 C         3.349291        -0.075226        -1.102261
 C         2.765109        -1.614935        -1.495810
 C         2.125670        -1.445219        -0.118889
 O         1.655688        -2.528330         0.590151
 C         3.222495        -0.462643         0.398987
 O         2.281634         0.428462         1.096968
 H        -0.330927        -0.167917         1.322658
 H        -0.103291         1.434455         0.496455
 H        -0.773748        -0.050638        -0.361477
 H         1.598870         0.955275        -2.167614
 H         2.470319         1.805637        -0.910144
 H         4.135800         0.331870        -1.699344
 H         2.149671        -1.817152        -2.471263
 H         3.448332        -2.400833        -1.334818
 H         2.367154        -2.891180         1.116250
 H         4.064139        -0.816758         1.013817
