19
Iteration:   856charge 0 multiplicity 1
 C        -0.037406         0.197032         0.327561
 C         1.393750         0.018575         0.070657
 C         2.005231         0.667186        -1.137228
 C         3.311296        -0.092123        -1.191712
 C         2.799041        -1.462997        -1.457519
 C         2.195572        -1.379531        -0.100145
 O         1.508768        -2.412631         0.618151
 C         3.316058        -0.458668         0.399992
 O         2.372782         0.427328         1.073076
 H        -0.370393        -0.513475         1.043939
 H        -0.222908         1.268545         0.449028
 H        -0.530130         0.151340        -0.530644
 H         1.260451         0.546682        -1.950397
 H         2.097059         1.791513        -0.972959
 H         4.113729         0.306907        -1.798178
 H         2.257987        -1.689084        -2.442809
 H         3.630078        -2.154889        -1.511001
 H         1.568320        -3.295625         0.109340
 H         4.223468        -0.681922         0.955891
