19
Iteration:   718
 C        -0.017209         0.136430         0.364045
 C         1.404129        -0.041674         0.107065
 C         2.135492         0.825360        -1.233631
 C         3.345890        -0.048938        -1.205627
 C         2.706842        -1.485819        -1.555405
 C         2.175180        -1.447648        -0.093636
 O         1.521359        -2.475981         0.653966
 C         3.275359        -0.431537         0.457242
 O         2.284013         0.460464         1.050196
 H        -0.171310        -0.431652         1.321197
 H        -0.228796         1.151910         0.534675
 H        -0.728380         0.039679        -0.496058
 H         1.641767         0.982162        -2.156943
 H         2.159381         1.869749        -1.010248
 H         4.283304         0.028863        -1.650666
 H         1.981974        -1.490113        -2.313424
 H         3.514145        -2.221970        -1.883758
 H         2.002176        -3.305442         0.605797
 H         4.280451        -0.612573         1.048934
