19
Iteration:  2989
 C        -0.039736         0.110339         0.322469
 C         1.457048         0.069923         0.017135
 C         2.072858         0.843280        -1.166049
 C         3.325989        -0.115975        -1.129361
 C         2.780636        -1.560182        -1.469777
 C         2.074825        -1.397351        -0.065145
 O         1.490237        -2.377867         0.596996
 C         3.263645        -0.497690         0.378140
 O         2.372615         0.434019         1.027273
 H        -0.204087        -0.596779         1.137320
 H        -0.349175         0.960261         0.970972
 H        -0.624487         0.056207        -0.541535
 H         1.665879         0.836761        -2.179489
 H         2.299417         1.876440        -0.789649
 H         4.188922         0.252934        -1.703659
 H         2.053037        -1.631111        -2.239854
 H         3.678196        -2.302800        -1.419595
 H         2.146924        -3.128604         0.494251
 H         4.045094        -0.808903         0.974575
