19
Iteration:  2143
 C         0.010725         0.240044         0.563663
 C         1.373057         0.087016         0.038808
 C         2.048078         0.731877        -1.231651
 C         3.380161        -0.121842        -1.162587
 C         2.744373        -1.556684        -1.531373
 C         2.075427        -1.356866        -0.180405
 O         1.512072        -2.436754         0.545238
 C         3.246334        -0.528440         0.373724
 O         2.390642         0.436732         1.065173
 H        -0.297756        -0.501351         1.355617
 H        -0.127177         1.285885         0.987221
 H        -0.726506         0.125932        -0.223406
 H         1.516815         0.751192        -2.187749
 H         2.252367         1.888455        -1.167298
 H         4.278960         0.259907        -1.817648
 H         2.281664        -1.746016        -2.586962
 H         3.556112        -2.297462        -1.279116
 H         2.209009        -2.687231         1.131158
 H         4.004036        -1.182759         0.916848
