19
Iteration:  2227
 C        -0.063901         0.186077         0.490166
 C         1.419827         0.119205        -0.002626
 C         2.126274         0.812206        -1.204349
 C         3.410783        -0.051460        -1.262000
 C         2.682195        -1.551368        -1.510045
 C         2.031613        -1.311095        -0.116649
 O         1.601212        -2.450528         0.679782
 C         3.174120        -0.536330         0.408148
 O         2.408322         0.361200         1.062731
 H        -0.160978        -0.389038         1.456941
 H        -0.272176         1.200941         0.808438
 H        -0.751496        -0.022855        -0.290195
 H         1.665702         0.609659        -2.169731
 H         2.390441         1.821390        -1.019867
 H         4.318302         0.131793        -1.770064
 H         2.086481        -1.795561        -2.411273
 H         3.417585        -2.312393        -1.630205
 H         1.641837        -3.238893         0.038292
 H         4.074988        -0.742031         0.824172
