19
Iteration:  3288charge 0 multiplicity 1
 C        -0.072039         0.198978         0.327751
 C         1.376628         0.088091        -0.008114
 C         2.088909         0.806097        -1.190656
 C         3.363747        -0.136559        -1.152853
 C         2.806098        -1.458426        -1.473098
 C         2.158299        -1.439203        -0.152429
 O         1.545724        -2.419383         0.575735
 C         3.185365        -0.561482         0.461537
 O         2.342594         0.404609         1.054865
 H        -0.252775        -0.395915         1.241509
 H        -0.084952         1.281576         0.674840
 H        -0.891054        -0.117034        -0.407366
 H         1.476871         0.804850        -2.095494
 H         2.313677         1.769753        -0.723932
 H         4.173254         0.377046        -1.572778
 H         2.242492        -1.792325        -2.360094
 H         3.575007        -2.179183        -1.499771
 H         2.202215        -2.761706         1.143518
 H         4.077484        -0.884830         1.099391
