19
Iteration:  1691
 C         0.028267         0.290197         0.603460
 C         1.433428         0.051222         0.074703
 C         1.992140         0.750212        -1.147061
 C         3.297987        -0.075037        -1.264267
 C         2.694853        -1.552018        -1.625979
 C         2.093942        -1.421709        -0.137779
 O         1.503394        -2.447925         0.500434
 C         3.293641        -0.554283         0.302511
 O         2.540046         0.359436         1.136792
 H        -0.142039        -0.057602         1.610246
 H        -0.217432         1.329009         0.675662
 H        -0.659064        -0.158296        -0.176215
 H         1.239184         0.817296        -1.979799
 H         2.195026         1.784398        -1.046279
 H         4.006888         0.372756        -1.847766
 H         2.172015        -1.621619        -2.599292
 H         3.267649        -2.408899        -1.476832
 H         1.201915        -2.065424         1.353664
 H         4.172661        -0.613089         0.959315
