19
Iteration:  1487
 C         0.009633         0.402986         0.507012
 C         1.404511         0.113156         0.031990
 C         2.040480         0.772990        -1.180932
 C         3.308426        -0.113881        -1.214187
 C         2.639310        -1.562000        -1.598617
 C         2.032699        -1.372332        -0.174193
 O         1.736258        -2.499558         0.606743
 C         3.218520        -0.562459         0.360747
 O         2.461439         0.361293         1.139576
 H        -0.148846        -0.175169         1.476199
 H        -0.332423         1.467085         0.693400
 H        -0.690018        -0.211342        -0.095961
 H         1.329029         0.579521        -1.986574
 H         2.333567         1.874289        -1.089536
 H         4.198543         0.317610        -1.520388
 H         2.058031        -1.669968        -2.432722
 H         3.373547        -2.359979        -1.766872
 H         0.770183        -2.735704         0.617885
 H         4.049592        -1.180285         0.724617
