19
Iteration:  2987
 C        -0.031462         0.122548         0.328928
 C         1.445830         0.064465         0.004910
 C         2.059031         0.850616        -1.154894
 C         3.320643        -0.129461        -1.124878
 C         2.780410        -1.553410        -1.459794
 C         2.080146        -1.394574        -0.075311
 O         1.501779        -2.370040         0.588289
 C         3.253707        -0.489721         0.388525
 O         2.384989         0.422633         1.027985
 H        -0.229943        -0.663324         1.111370
 H        -0.319986         0.983341         0.877830
 H        -0.583226         0.092933        -0.609054
 H         1.611695         0.739414        -2.145357
 H         2.285203         1.844008        -0.799748
 H         4.151669         0.242209        -1.692026
 H         2.070239        -1.673209        -2.232805
 H         3.679040        -2.279181        -1.496451
 H         2.084747        -3.103686         0.583576
 H         4.091916        -0.827494         0.993710
