19
Iteration:   345charge 0 multiplicity 1
 C        -0.075659         0.159072         0.394382
 C         1.424441         0.046389         0.010248
 C         2.015622         0.740652        -1.163803
 C         3.286614        -0.119492        -1.163117
 C         2.778575        -1.507854        -1.473359
 C         2.201023        -1.444037        -0.073552
 O         1.584099        -2.468821         0.528630
 C         3.262886        -0.424196         0.480305
 O         2.389724         0.525092         1.075247
 H        -0.269089        -0.498106         1.208975
 H        -0.280182         1.148691         0.744704
 H        -0.833476         0.078345        -0.463586
 H         1.381033         0.569999        -2.083457
 H         2.252803         1.781188        -1.078532
 H         4.230669         0.125118        -1.769878
 H         1.980275        -1.757078        -2.184522
 H         3.652233        -2.242143        -1.579426
 H         1.374393        -3.068108        -0.264517
 H         4.147239        -0.603823         1.023340
