19
Iteration:  1048charge 0 multiplicity 1
 C        -0.019456         0.223675         0.362405
 C         1.427032         0.075932         0.073696
 C         2.012634         0.718118        -1.168665
 C         3.263348        -0.075367        -1.160502
 C         2.741674        -1.511411        -1.469900
 C         2.103545        -1.370290        -0.115349
 O         1.525438        -2.449559         0.556241
 C         3.293006        -0.477758         0.292665
 O         2.435464         0.389778         1.124970
 H        -0.299223        -0.499042         1.042437
 H        -0.229181         1.202450         0.634282
 H        -0.648452         0.054691        -0.550455
 H         1.461513         0.600129        -2.122222
 H         2.111836         1.778323        -0.970350
 H         4.210409         0.314134        -1.643161
 H         2.071275        -1.710703        -2.300229
 H         3.616482        -2.294380        -1.269877
 H         2.244533        -2.877904         1.023905
 H         4.156421        -0.768735         0.825780
