19
Iteration:  3773charge 0 multiplicity 1
 C        -0.025709         0.082979         0.279420
 C         1.412672         0.107612        -0.004142
 C         2.030308         0.778270        -1.167835
 C         3.343282        -0.055307        -1.084392
 C         2.839759        -1.552497        -1.399594
 C         2.151735        -1.358441        -0.129130
 O         1.446607        -2.413483         0.551839
 C         3.261003        -0.511655         0.563779
 O         2.370341         0.461521         1.027460
 H        -0.204713        -0.566452         1.120893
 H        -0.318948         1.075345         0.587504
 H        -0.523000        -0.057280        -0.685057
 H         1.511639         0.546124        -2.174902
 H         2.296981         1.892130        -1.325112
 H         4.244086         0.202168        -1.669069
 H         2.166950        -1.589364        -2.322243
 H         3.552901        -2.403004        -1.442065
 H         1.750081        -3.209678         0.178134
 H         4.225523        -0.706944         1.115073
