19
Iteration:  2411
 C        -0.021187         0.202657         0.436157
 C         1.396211         0.055335        -0.026202
 C         2.077772         0.768207        -1.284852
 C         3.390936        -0.098874        -1.168045
 C         2.700782        -1.516708        -1.517616
 C         2.143481        -1.388841        -0.154816
 O         1.601175        -2.490661         0.599997
 C         3.263255        -0.540136         0.453688
 O         2.350592         0.465744         1.122319
 H        -0.296219        -0.471611         1.301491
 H        -0.138393         1.196454         0.839963
 H        -0.680331        -0.146386        -0.327946
 H         1.582518         0.747605        -2.294831
 H         2.035496         1.818179        -1.000392
 H         4.206509         0.209325        -1.856806
 H         2.062746        -1.595038        -2.372104
 H         3.614184        -2.157476        -1.393305
 H         0.759252        -2.372106         1.013875
 H         4.152131        -0.776772         1.013728
