19
Iteration:   578
 C        -0.066490         0.195579         0.343435
 C         1.398117        -0.060408        -0.022899
 C         1.982287         0.782194        -1.149099
 C         3.331669        -0.055310        -1.227391
 C         2.780848        -1.460451        -1.523446
 C         2.166459        -1.395728        -0.110080
 O         1.502916        -2.411182         0.638458
 C         3.309846        -0.437879         0.411230
 O         2.392575         0.324330         1.123564
 H        -0.281626        -0.483221         1.199527
 H        -0.257724         1.291009         0.492337
 H        -0.591515        -0.056354        -0.586907
 H         1.507560         0.932621        -2.174241
 H         2.180094         1.816497        -1.047659
 H         4.195629         0.300668        -1.700790
 H         2.091470        -1.688614        -2.359149
 H         3.608521        -2.223452        -1.612812
 H         1.985595        -2.754796         1.372008
 H         4.331258        -0.728122         0.908467
