19
Iteration:  1015
 C        -0.025614         0.258297         0.369691
 C         1.387379         0.039555        -0.018197
 C         2.034190         0.706735        -1.156478
 C         3.261191        -0.081491        -1.213576
 C         2.744739        -1.474893        -1.508994
 C         2.184533        -1.395821        -0.133846
 O         1.583056        -2.468124         0.669044
 C         3.279721        -0.493416         0.427879
 O         2.380098         0.421804         1.086610
 H        -0.233390        -0.264051         1.228800
 H        -0.106119         1.246511         0.678624
 H        -0.754500         0.029426        -0.442980
 H         1.540086         0.715502        -2.137200
 H         2.264778         1.688568        -0.793368
 H         4.157962         0.360908        -1.763243
 H         2.035076        -1.742844        -2.244821
 H         3.658291        -2.165915        -1.653830
 H         1.440429        -3.307393         0.114140
 H         4.128702        -0.690234         1.072749
