19
Iteration:  2801charge 0 multiplicity 1
 C        -0.041256         0.233875         0.346697
 C         1.413901         0.049450        -0.021888
 C         2.107777         0.735495        -1.238722
 C         3.381792        -0.087949        -1.128059
 C         2.713535        -1.485286        -1.538021
 C         2.052632        -1.414571        -0.096011
 O         1.614580        -2.563013         0.568811
 C         3.196515        -0.455958         0.438946
 O         2.342040         0.475254         1.104539
 H        -0.221071        -0.394657         1.278622
 H        -0.272986         1.210076         0.721941
 H        -0.742304         0.131905        -0.575349
 H         1.490766         0.668819        -2.216758
 H         2.185331         1.750115        -0.825404
 H         4.496913         0.175205        -1.266435
 H         1.991545        -1.411696        -2.337448
 H         3.446056        -2.361292        -1.649491
 H         2.118588        -2.749903         1.361400
 H         4.233660        -0.682044         0.916386
