19
Iteration:  2494
 C        -0.085053         0.184657         0.325456
 C         1.403718         0.020424         0.108709
 C         2.031466         0.709808        -1.230035
 C         3.371716        -0.122827        -1.154306
 C         2.711352        -1.522065        -1.485712
 C         2.140193        -1.352910        -0.096248
 O         1.560383        -2.412997         0.588285
 C         3.308444        -0.453364         0.433774
 O         2.417149         0.449468         1.093043
 H        -0.247338        -0.032605         1.354150
 H        -0.211112         1.289461         0.228490
 H        -0.864249        -0.284404        -0.407182
 H         1.325884         0.536692        -2.062911
 H         2.116931         1.772882        -1.024490
 H         4.200539         0.262160        -1.610588
 H         2.064840        -1.439054        -2.368586
 H         3.379345        -2.378825        -1.626794
 H         1.788901        -3.247548         0.026760
 H         4.162296        -0.787555         1.119270
