19
Iteration:  1836charge 0 multiplicity 1
 C         0.094596         0.285041         0.613712
 C         1.437726         0.115274         0.012814
 C         2.020161         0.753524        -1.215275
 C         3.331733        -0.093941        -1.186119
 C         2.665260        -1.530585        -1.564936
 C         2.016882        -1.370772        -0.099202
 O         1.618109        -2.523645         0.565783
 C         3.213572        -0.542878         0.369888
 O         2.467678         0.398810         1.017780
 H        -0.034670        -0.319932         1.588233
 H        -0.116778         1.354012         0.994231
 H        -0.697582        -0.108836        -0.052059
 H         1.413213         0.867662        -2.132374
 H         2.120591         1.896678        -1.014480
 H         4.232756         0.404996        -1.713579
 H         2.048894        -1.722735        -2.502026
 H         3.448772        -2.273055        -1.609792
 H         0.705607        -2.766030         0.321527
 H         4.091192        -0.891602         0.951826
