19
Iteration:  3590
 C        -0.076187         0.240713         0.409164
 C         1.392852         0.138330         0.007517
 C         2.128004         0.807771        -1.231279
 C         3.380231        -0.113670        -1.103706
 C         2.840149        -1.572324        -1.480599
 C         2.149141        -1.453618        -0.131443
 O         1.540345        -2.520827         0.605682
 C         3.186636        -0.484622         0.462704
 O         2.331308         0.443283         1.046528
 H        -0.341330        -0.391220         1.275441
 H        -0.421139         1.359034         0.610403
 H        -0.724881        -0.199065        -0.471613
 H         1.588305         0.884616        -2.164834
 H         2.080577         1.937820        -1.093600
 H         4.292009         0.334421        -1.446580
 H         2.315274        -1.732450        -2.399930
 H         3.772611        -2.263071        -1.471608
 H         1.249390        -3.131657        -0.114755
 H         4.167994        -0.475385         1.001336
