19
Iteration:   234
 C        -0.133421         0.163042         0.397184
 C         1.391357         0.053211         0.027584
 C         2.083789         0.757878        -1.184369
 C         3.339843        -0.147100        -1.068970
 C         2.692603        -1.481499        -1.472429
 C         2.148189        -1.374439        -0.063244
 O         1.672662        -2.540993         0.446828
 C         3.242821        -0.451628         0.410574
 O         2.406375         0.523173         1.074619
 H        -0.439255        -0.495738         1.230106
 H        -0.549716         1.170851         0.553765
 H        -0.620600        -0.358608        -0.453339
 H         1.720990         0.590160        -2.242768
 H         2.261856         1.825089        -1.058844
 H         4.363022         0.173083        -1.672846
 H         2.202243        -1.569957        -2.471495
 H         3.460464        -2.269323        -1.504039
 H         0.958508        -2.472344         1.045201
 H         4.137368        -0.704425         1.016037
