19
Iteration:  3190
 C        -0.070062         0.101745         0.445789
 C         1.385264         0.037336        -0.063231
 C         2.077018         0.729644        -1.224471
 C         3.389299        -0.094743        -1.080037
 C         2.850859        -1.532800        -1.453481
 C         2.178063        -1.368890        -0.141844
 O         1.489736        -2.329113         0.549494
 C         3.244275        -0.515146         0.467980
 O         2.343137         0.477918         1.048656
 H        -0.187083        -0.588543         1.243647
 H        -0.271270         1.183545         0.725585
 H        -0.865582        -0.294909        -0.299642
 H         1.453126         0.739437        -2.172193
 H         2.191566         1.830010        -1.064626
 H         4.329119         0.214216        -1.440392
 H         2.068559        -1.645844        -2.398065
 H         3.521772        -2.361064        -1.562019
 H         1.673561        -3.102041         0.097193
 H         4.038449        -0.796726         1.234260
