19
Iteration:  3868charge 0 multiplicity 1
 C        -0.046896         0.292508         0.306209
 C         1.423644         0.015186        -0.000486
 C         2.064114         0.813145        -1.251032
 C         3.381865        -0.045644        -1.043561
 C         2.832169        -1.497425        -1.379008
 C         2.140965        -1.437214        -0.097134
 O         1.517506        -2.540655         0.511307
 C         3.202965        -0.492161         0.438096
 O         2.308760         0.398302         1.055782
 H        -0.360900        -0.228729         1.337947
 H        -0.326816         1.353560         0.355263
 H        -0.616551        -0.066162        -0.562766
 H         1.568711         0.550123        -2.184615
 H         2.198959         1.866549        -1.296924
 H         4.316436         0.476741        -1.534390
 H         2.075752        -1.659190        -2.210591
 H         3.555319        -2.251553        -1.421165
 H         2.121095        -2.897538         1.224815
 H         4.191089        -0.814612         0.882532
