19
Iteration:  1610charge 0 multiplicity 1
 C         0.088849         0.359756         0.526344
 C         1.429406        -0.004075         0.000169
 C         1.984115         0.812186        -1.157605
 C         3.235719        -0.086265        -1.240281
 C         2.694589        -1.518339        -1.533896
 C         2.074995        -1.378957        -0.137628
 O         1.520841        -2.468205         0.566914
 C         3.349161        -0.547979         0.245434
 O         2.436284         0.285814         1.122352
 H        -0.249345        -0.298888         1.373894
 H         0.196292         1.461252         0.783291
 H        -0.761551         0.396383        -0.180781
 H         1.139332         0.609799        -1.824927
 H         2.130906         1.842264        -0.711581
 H         4.195354         0.238109        -1.846529
 H         2.074767        -1.574363        -2.382571
 H         3.487439        -2.307816        -1.542090
 H         1.860620        -2.303151         1.506740
 H         4.264085        -0.955053         0.699180
