19
Iteration:  1995
 C         0.003645         0.304818         0.529032
 C         1.473714         0.058067         0.043898
 C         1.960561         0.713188        -1.182535
 C         3.309108        -0.129503        -1.212268
 C         2.820822        -1.528464        -1.559792
 C         2.062142        -1.381953        -0.121132
 O         1.552468        -2.456265         0.581985
 C         3.222670        -0.519126         0.338895
 O         2.482497         0.454041         1.101374
 H        -0.125720        -0.481468         1.285131
 H        -0.282834         1.186196         1.152106
 H        -0.859731         0.285120        -0.280956
 H         1.063970         0.420412        -1.893611
 H         2.075039         1.814076        -1.171021
 H         4.221288         0.345301        -1.690610
 H         2.536277        -1.788735        -2.685500
 H         3.493514        -2.443723        -1.229559
 H         0.816063        -2.761790         0.069038
 H         4.214157        -0.905118         0.821822
