19
Iteration:  4828
 C        -0.029587         0.521325         0.366527
 C         1.374266         0.056388         0.082331
 C         2.086618         0.761043        -1.116565
 C         3.356070        -0.059798        -1.103032
 C         2.698364        -1.506712        -1.542239
 C         2.182820        -1.484877        -0.099253
 O         1.629507        -2.569187         0.531759
 C         3.205032        -0.605494         0.403351
 O         2.391256         0.365819         1.074039
 H        -0.603157        -0.159433         0.982029
 H         0.003792         1.471435         0.881988
 H        -0.638332         0.744815        -0.578565
 H         1.346192         0.626345        -1.995892
 H         2.171288         1.875237        -0.768080
 H         4.203035         0.244738        -1.645141
 H         1.992227        -1.672266        -2.487330
 H         3.534906        -2.338054        -1.533722
 H         0.952396        -2.948834         0.003415
 H         4.165801        -0.945223         0.902052
