19
Iteration:  4096
 C         0.004484         0.069251         0.264191
 C         1.443216         0.082937        -0.002816
 C         2.161785         0.816768        -1.253806
 C         3.403459        -0.100230        -1.064917
 C         2.761572        -1.543986        -1.477746
 C         2.125213        -1.376234        -0.120562
 O         1.464366        -2.407148         0.614749
 C         3.244285        -0.495373         0.442043
 O         2.263442         0.499034         1.128157
 H        -0.131741        -0.602322         1.140030
 H        -0.228440         1.045188         0.573096
 H        -0.545516        -0.262682        -0.559091
 H         1.512810         0.740432        -2.169180
 H         2.343833         1.814002        -0.793355
 H         4.398333         0.094689        -1.617731
 H         2.004235        -1.591546        -2.353077
 H         3.418981        -2.382563        -1.612777
 H         1.686872        -3.349458         0.258075
 H         4.096494        -0.567970         1.158012
