19
Iteration:  4799
 C         0.014135         0.482946         0.393986
 C         1.436217         0.024562         0.092545
 C         2.057480         0.785865        -1.168246
 C         3.388192        -0.082056        -1.153053
 C         2.765262        -1.483189        -1.536259
 C         2.081551        -1.407784        -0.105217
 O         1.633627        -2.577027         0.482463
 C         3.172921        -0.555112         0.407023
 O         2.342603         0.286196         1.137322
 H        -0.300190         0.171409         1.417643
 H         0.039779         1.606185         0.389911
 H        -0.628985         0.233480        -0.390653
 H         1.268048         0.676822        -1.926496
 H         2.149706         1.862671        -1.150726
 H         4.263637         0.082238        -1.809663
 H         2.403670        -1.514809        -2.518534
 H         3.365643        -2.313495        -1.397644
 H         0.707226        -2.617717         0.683603
 H         4.063937        -0.892990         0.960304
