19
Iteration:  2525
 C        -0.010897         0.094935         0.390153
 C         1.434437         0.133786         0.013613
 C         2.081636         0.879393        -1.253324
 C         3.342312        -0.083823        -1.116339
 C         2.766877        -1.592833        -1.473198
 C         2.069264        -1.435323        -0.140672
 O         1.568584        -2.470703         0.699464
 C         3.242976        -0.465913         0.379881
 O         2.352628         0.439957         1.014671
 H        -0.044527        -0.505238         1.267278
 H        -0.164229         1.116538         0.838521
 H        -0.783566        -0.244926        -0.275900
 H         1.514831         0.886323        -2.160788
 H         2.392630         1.924998        -1.102909
 H         4.248218         0.205677        -1.538139
 H         2.312675        -1.623989        -2.484362
 H         3.569531        -2.246425        -1.372943
 H         0.926214        -2.817661         0.106018
 H         4.104790        -0.729532         1.040348
