19
Iteration:  2761
 C         0.010918         0.358691         0.303293
 C         1.370979        -0.047615         0.014459
 C         1.969564         0.709102        -1.160014
 C         3.285118        -0.054993        -1.173072
 C         2.896827        -1.569181        -1.516597
 C         2.116241        -1.343472        -0.064722
 O         1.533598        -2.485013         0.565263
 C         3.234476        -0.446443         0.326896
 O         2.356451         0.361085         1.158517
 H        -0.436069        -0.298696         1.063324
 H        -0.018066         1.426340         0.697291
 H        -0.536820         0.123321        -0.546472
 H         1.387261         0.731169        -2.041033
 H         2.007943         1.808484        -0.992737
 H         4.140526         0.527955        -1.430535
 H         2.434498        -1.904590        -2.444154
 H         3.726754        -2.193646        -1.116664
 H         2.252144        -2.957692         1.098739
 H         4.119277        -0.721799         0.708843
