19
Iteration:  4522charge 0 multiplicity 1
 C        -0.043771         0.273281         0.251244
 C         1.425365         0.058382         0.010459
 C         2.013908         0.783114        -1.150852
 C         3.354790        -0.038825        -1.105773
 C         2.734643        -1.476907        -1.420864
 C         2.206235        -1.444757        -0.046949
 O         1.480295        -2.461917         0.535880
 C         3.261412        -0.507031         0.499728
 O         2.437560         0.377493         1.069531
 H        -0.244969         0.291092         1.332134
 H        -0.213474         1.251692        -0.178045
 H        -0.746906        -0.397537        -0.329826
 H         1.512664         0.614960        -2.094270
 H         2.002422         1.821955        -0.866982
 H         4.300329         0.166343        -1.629218
 H         2.134688        -1.837412        -2.296317
 H         3.536354        -2.244935        -1.466912
 H         1.390520        -3.280063        -0.052130
 H         4.148694        -0.962873         0.801839
