19
Iteration:  4504
 C        -0.047124         0.391901         0.331976
 C         1.417903         0.107618         0.051833
 C         2.082554         0.724429        -1.195911
 C         3.307253        -0.093871        -1.129668
 C         2.890576        -1.517651        -1.489418
 C         2.000767        -1.420048        -0.092259
 O         1.542272        -2.594375         0.573871
 C         3.260552        -0.498298         0.384476
 O         2.380297         0.432641         1.153624
 H        -0.289079         0.359547         1.379608
 H        -0.389873         1.312179        -0.239577
 H        -0.741089        -0.368031        -0.193407
 H         1.449828         0.525702        -2.075354
 H         2.244400         1.798319        -1.036061
 H         4.199733         0.381671        -1.441427
 H         2.426460        -1.501763        -2.554458
 H         3.623695        -2.299095        -1.434534
 H         1.447717        -3.321691        -0.144639
 H         4.251542        -0.794388         1.119035
