19
Iteration:   562charge 0 multiplicity 1
 C        -0.010880         0.158849         0.289359
 C         1.465383         0.042689         0.102898
 C         2.019298         0.704745        -1.177763
 C         3.315436        -0.045976        -1.148449
 C         2.734058        -1.505262        -1.582456
 C         2.198787        -1.447887        -0.115296
 O         1.488052        -2.444524         0.598183
 C         3.355863        -0.429854         0.388801
 O         2.339470         0.414198         1.136883
 H        -0.424099        -0.376624         1.148899
 H        -0.109891         1.205863         0.557620
 H        -0.672514         0.050650        -0.683907
 H         1.251685         0.433828        -1.905833
 H         1.836864         1.855012        -0.970937
 H         4.275774         0.460089        -1.629213
 H         1.963098        -1.395791        -2.379237
 H         3.414783        -2.344192        -1.857424
 H         1.983061        -2.700006         1.338328
 H         4.241576        -0.599145         0.879232
