19
Iteration:  3138charge 0 multiplicity 1
 C        -0.088802         0.217248         0.276605
 C         1.376756         0.085481         0.015151
 C         2.016836         0.767703        -1.132483
 C         3.294017        -0.102251        -1.132512
 C         2.848226        -1.542789        -1.474914
 C         2.157839        -1.390978        -0.077961
 O         1.520433        -2.428315         0.540369
 C         3.255079        -0.533087         0.370437
 O         2.402252         0.413448         1.118510
 H        -0.406920        -0.615413         0.896881
 H        -0.292328         1.147573         0.675771
 H        -0.567141         0.122717        -0.704566
 H         1.628796         0.862676        -2.130111
 H         2.142641         1.802935        -1.053030
 H         4.193217         0.287208        -1.622393
 H         2.248720        -1.794146        -2.333190
 H         3.647249        -2.243288        -1.249640
 H         2.070113        -2.788496         1.203359
 H         4.183074        -0.723715         0.984343
