19
Iteration:  1634
 C        -0.031387         0.428839         0.576622
 C         1.386061         0.114415         0.105810
 C         2.079500         0.795091        -1.141242
 C         3.252076        -0.146115        -1.247867
 C         2.603093        -1.527386        -1.620001
 C         2.097164        -1.417022        -0.091209
 O         1.676865        -2.550915         0.510764
 C         3.270712        -0.593763         0.281286
 O         2.505250         0.386477         1.110535
 H        -0.404698        -0.293766         1.283443
 H        -0.375796         1.459779         0.663700
 H        -0.652896         0.081639        -0.337046
 H         1.342116         0.542839        -1.967987
 H         2.366496         1.806943        -0.849327
 H         4.146229         0.231035        -1.861189
 H         1.999741        -1.518497        -2.489597
 H         3.334614        -2.301984        -1.628541
 H         1.270331        -2.399625         1.403272
 H         4.119049        -0.996089         0.819930
