19
Iteration:  3458
 C        -0.004382         0.133580         0.300093
 C         1.465601         0.020810         0.034808
 C         2.074439         0.773269        -1.110547
 C         3.378908        -0.129195        -1.137893
 C         2.779487        -1.458408        -1.452507
 C         2.070486        -1.337697        -0.121727
 O         1.487407        -2.483119         0.482263
 C         3.280830        -0.473600         0.363618
 O         2.367359         0.443750         1.082627
 H        -0.140742        -0.399826         1.309086
 H        -0.279391         1.235572         0.399613
 H        -0.538044        -0.362338        -0.530658
 H         1.526179         0.481801        -1.945162
 H         2.144912         1.781353        -0.694332
 H         4.296451         0.280351        -1.497757
 H         2.058562        -1.573132        -2.272382
 H         3.373387        -2.422852        -1.235586
 H         1.057366        -2.270555         1.364692
 H         4.217407        -0.630274         0.886218
