19
Iteration:   668
 C        -0.105028         0.217952         0.413206
 C         1.373479         0.038212         0.088124
 C         2.022118         0.728272        -1.174457
 C         3.285966        -0.112370        -1.205010
 C         2.944328        -1.513495        -1.490284
 C         2.125699        -1.408726        -0.103364
 O         1.466060        -2.449079         0.565749
 C         3.318011        -0.435504         0.342038
 O         2.405685         0.449830         1.133935
 H        -0.359527        -0.428856         1.232584
 H        -0.463047         1.310657         0.604376
 H        -0.685932        -0.045604        -0.445932
 H         1.281178         0.536625        -2.060233
 H         2.161566         1.847858        -1.210665
 H         4.157377         0.517698        -1.664198
 H         2.490918        -1.896515        -2.496125
 H         3.763821        -2.191992        -1.312836
 H         1.788459        -3.272498         0.250291
 H         4.274528        -0.722322         0.813473
