19
Iteration:  2683
 C        -0.063998         0.061859         0.342036
 C         1.473483         0.105197         0.043993
 C         2.020804         0.808141        -1.234691
 C         3.292914        -0.069122        -1.168410
 C         2.827487        -1.616799        -1.379424
 C         2.197068        -1.378238        -0.079401
 O         1.392543        -2.381157         0.548295
 C         3.326541        -0.468073         0.441294
 O         2.405629         0.458134         1.067372
 H        -0.224756        -0.433272         1.349611
 H        -0.559308         1.015909         0.391879
 H        -0.468722        -0.393414        -0.579761
 H         1.354230         0.716138        -2.120461
 H         2.356527         1.831776        -0.963959
 H         3.945054         0.435878        -2.009208
 H         2.104061        -1.664574        -2.148254
 H         3.820634        -2.202776        -1.503173
 H         1.737557        -3.286651         0.470045
 H         4.204396        -0.723405         1.023877
