19
Iteration:   771charge 0 multiplicity 1
 C        -0.018072         0.197053         0.403281
 C         1.366584         0.105205         0.027670
 C         1.991021         0.715615        -1.232113
 C         3.337790        -0.041893        -1.193958
 C         2.849114        -1.488269        -1.528537
 C         2.154686        -1.366997        -0.134321
 O         1.481513        -2.430185         0.619873
 C         3.259768        -0.538799         0.425297
 O         2.383552         0.362052         1.094071
 H        -0.398586        -0.421962         1.264821
 H        -0.182464         1.293639         0.643470
 H        -0.593746        -0.310050        -0.552193
 H         1.341808         0.593713        -2.103648
 H         2.118821         1.836186        -1.101746
 H         4.185204         0.379411        -1.639435
 H         2.218486        -1.526753        -2.405883
 H         3.719461        -2.172685        -1.464247
 H         2.139210        -2.933512         1.114780
 H         4.249349        -0.794740         0.955017
