19
Iteration:  3460
 C        -0.015874         0.108388         0.316250
 C         1.446335         0.034022         0.038067
 C         2.094663         0.762919        -1.117322
 C         3.383294        -0.109994        -1.143886
 C         2.777683        -1.458438        -1.469610
 C         2.072336        -1.343735        -0.115655
 O         1.479995        -2.468771         0.482663
 C         3.289590        -0.484553         0.363296
 O         2.367573         0.445091         1.081654
 H        -0.141618        -0.334156         1.254623
 H        -0.262586         1.197781         0.402502
 H        -0.563838        -0.311160        -0.567793
 H         1.514826         0.463221        -1.970738
 H         2.153610         1.812323        -0.707063
 H         4.326469         0.224599        -1.500005
 H         2.050714        -1.562379        -2.227702
 H         3.399002        -2.409191        -1.237420
 H         1.095993        -2.333155         1.425378
 H         4.226087        -0.636706         0.977097
