19
Iteration:   793charge 0 multiplicity 1
 C        -0.033931         0.184588         0.510304
 C         1.403866        -0.064459        -0.080227
 C         2.068995         0.756960        -1.178684
 C         3.371534        -0.051784        -1.141207
 C         2.768401        -1.561788        -1.499468
 C         2.188716        -1.428649        -0.151284
 O         1.477487        -2.419506         0.569366
 C         3.271557        -0.359252         0.395471
 O         2.308495         0.423262         1.047072
 H        -0.403278        -0.276724         1.492958
 H         0.041672         1.314080         0.583425
 H        -0.942565        -0.091244        -0.277726
 H         1.679920         0.743720        -2.200785
 H         2.105732         1.853749        -0.895700
 H         4.310465         0.224006        -1.474199
 H         2.131051        -1.561504        -2.388816
 H         3.581456        -2.335812        -1.450705
 H         2.122273        -3.091312         0.922034
 H         4.255431        -0.710139         0.904511
