19
Iteration:  2520charge 0 multiplicity 1
 C         0.007336         0.113492         0.399898
 C         1.405055         0.118130        -0.014478
 C         2.118637         0.863432        -1.255517
 C         3.300177        -0.106596        -1.126941
 C         2.764028        -1.551559        -1.478702
 C         2.052910        -1.412110        -0.135191
 O         1.570719        -2.475192         0.697547
 C         3.278050        -0.484845         0.419373
 O         2.354857         0.454962         1.030819
 H         0.020447        -0.526293         1.341599
 H        -0.298437         1.115751         0.727047
 H        -0.711879        -0.239119        -0.391762
 H         1.533821         0.765391        -2.222314
 H         2.253306         1.955918        -1.068643
 H         4.255957         0.335455        -1.635645
 H         2.223744        -1.593388        -2.433723
 H         3.633481        -2.318411        -1.408515
 H         0.975533        -3.012281         0.074043
 H         4.126209        -0.800009         1.009888
