19
Iteration:  4920charge 0 multiplicity 1
 C        -0.031698         0.260961         0.458198
 C         1.498633         0.142004         0.063975
 C         2.039403         0.819054        -1.163262
 C         3.315097        -0.114787        -1.168758
 C         2.739777        -1.539661        -1.492987
 C         2.117221        -1.393305        -0.136623
 O         1.345786        -2.423648         0.482688
 C         3.307773        -0.581877         0.438128
 O         2.491917         0.365333         1.094506
 H        -0.233391        -0.579123         1.141389
 H        -0.306349         1.247649         0.849269
 H        -0.630112         0.021197        -0.402021
 H         1.606449         0.803762        -2.259689
 H         2.288784         1.872471        -0.845850
 H         4.275178         0.308674        -1.671381
 H         2.329157        -1.531023        -2.475012
 H         3.468809        -2.321715        -1.329614
 H         1.701729        -3.317879         0.127644
 H         4.191667        -0.841401         0.990084
