19
Iteration:  3254
 C        -0.063218         0.310407         0.269263
 C         1.396963         0.012675         0.106492
 C         1.989163         0.624930        -1.148138
 C         3.399922        -0.080586        -1.133729
 C         2.804363        -1.453726        -1.486076
 C         2.096770        -1.395826        -0.133099
 O         1.555692        -2.508721         0.547981
 C         3.286191        -0.425461         0.408169
 O         2.331930         0.399563         1.122555
 H        -0.319450         0.055460         1.261128
 H        -0.081528         1.480283         0.247064
 H        -0.763029        -0.029392        -0.566528
 H         1.439260         0.662837        -2.075863
 H         2.242003         1.706092        -1.093264
 H         4.281269         0.311991        -1.556209
 H         2.128353        -1.540009        -2.313126
 H         3.529892        -2.232173        -1.351427
 H         2.151450        -3.288039         0.467019
 H         4.197558        -0.657676         1.004101
