19
Iteration:  4550charge 0 multiplicity 1
 C        -0.018274         0.111626         0.310917
 C         1.436586         0.123991         0.035635
 C         2.175589         0.734370        -1.148183
 C         3.399313        -0.160684        -1.136622
 C         2.733497        -1.483414        -1.570849
 C         2.094313        -1.388984        -0.118683
 O         1.399218        -2.372352         0.590173
 C         3.268508        -0.397744         0.438759
 O         2.346541         0.393285         1.148795
 H        -0.165355        -0.410853         1.278291
 H        -0.539533         1.099608         0.281517
 H        -0.451670        -0.481612        -0.443669
 H         1.664753         0.798373        -2.147525
 H         2.467574         1.803176        -0.795718
 H         4.305567         0.138544        -1.728638
 H         2.168199        -1.514056        -2.485597
 H         3.471034        -2.347076        -1.484833
 H         1.762458        -3.268196         0.462451
 H         4.237093        -0.778968         0.857248
