19
Iteration:   156
 C        -0.066903         0.191667         0.301386
 C         1.436517         0.050695         0.039074
 C         2.028744         0.721548        -1.216483
 C         3.308418        -0.074780        -1.125608
 C         2.799796        -1.497101        -1.479998
 C         2.104383        -1.351144        -0.122108
 O         1.602667        -2.435254         0.624519
 C         3.284757        -0.487107         0.418178
 O         2.299286         0.401378         1.132205
 H        -0.297680        -0.579143         1.045515
 H        -0.283201         1.213308         0.689290
 H        -0.532300         0.115633        -0.632882
 H         1.554838         0.497231        -2.172468
 H         2.188743         1.797081        -1.130403
 H         4.326051         0.386673        -1.573877
 H         2.199413        -1.627828        -2.440596
 H         3.662822        -2.126003        -1.411944
 H         1.769179        -3.228157         0.055341
 H         4.162525        -0.714039         1.042384
