19
Iteration:  4468charge 0 multiplicity 1
 C        -0.020923         0.395468         0.415597
 C         1.367637         0.069448        -0.128341
 C         2.105408         0.762757        -1.248614
 C         3.330540        -0.071141        -1.038428
 C         2.830313        -1.538394        -1.425318
 C         2.090842        -1.408599        -0.098603
 O         1.646009        -2.546475         0.560687
 C         3.218348        -0.503299         0.474607
 O         2.276827         0.335797         1.029196
 H         0.040097         0.385606         1.538528
 H        -0.081386         1.496811         0.375960
 H        -0.955079        -0.151308         0.026555
 H         1.654066         0.706909        -2.205477
 H         2.182043         1.771661        -1.013376
 H         4.278223         0.363471        -1.420830
 H         2.240870        -1.467776        -2.415991
 H         3.586505        -2.339099        -1.391824
 H         0.957704        -3.104876         0.043420
 H         4.200641        -0.936947         0.955675
