19
Iteration:    71charge 0 multiplicity 1
 C        -0.033637         0.229928         0.394207
 C         1.364786        -0.025958         0.032233
 C         1.996348         0.687426        -1.228268
 C         3.370575        -0.015913        -1.199735
 C         3.005670        -1.436347        -1.482783
 C         2.168246        -1.412447        -0.176964
 O         1.530760        -2.435498         0.675421
 C         3.245482        -0.435887         0.345332
 O         2.282673         0.267380         1.137674
 H        -0.440830        -0.092972         1.378436
 H        -0.195415         1.358335         0.303440
 H        -0.702315        -0.244501        -0.380182
 H         1.344104         0.614771        -2.225622
 H         2.046102         1.805621        -0.999429
 H         4.325201         0.537574        -1.571048
 H         2.491033        -1.633684        -2.460106
 H         3.879321        -2.110671        -1.449353
 H         0.565540        -2.239548         0.630254
 H         4.200279        -0.570455         0.903265
