19
Iteration:   378charge 0 multiplicity 1
 C        -0.034327         0.206516         0.369980
 C         1.369061         0.044102         0.022561
 C         2.021153         0.780810        -1.148464
 C         3.305376        -0.005116        -1.167175
 C         2.844438        -1.489725        -1.445208
 C         2.099908        -1.456989        -0.153649
 O         1.482847        -2.426157         0.617498
 C         3.313041        -0.448759         0.310308
 O         2.380794         0.358897         1.098041
 H        -0.273285        -0.441208         1.182681
 H        -0.161544         1.202132         0.709258
 H        -0.715907        -0.166419        -0.483373
 H         1.330098         0.491318        -1.981360
 H         2.082064         1.834054        -1.031684
 H         4.228603         0.327910        -1.770018
 H         2.409265        -1.948919        -2.404522
 H         3.858684        -2.049957        -1.329704
 H         2.149952        -3.165017         0.707064
 H         4.177256        -0.737484         0.836657
