19
Iteration:   409charge 0 multiplicity 1
 C        -0.035795         0.176972         0.447558
 C         1.343094         0.031462         0.012759
 C         2.098442         0.699187        -1.205359
 C         3.414671        -0.092425        -1.144976
 C         2.752416        -1.469212        -1.602363
 C         2.125397        -1.391443        -0.193181
 O         1.596061        -2.461030         0.580916
 C         3.251746        -0.506805         0.425745
 O         2.299128         0.457983         1.114673
 H        -0.172929        -0.443997         1.323780
 H        -0.183532         1.236468         0.678317
 H        -0.707433        -0.270117        -0.375054
 H         1.497047         0.559216        -2.056154
 H         2.166405         1.729087        -1.042992
 H         4.399020         0.387081        -1.655029
 H         1.914892        -1.289652        -2.356821
 H         3.578102        -2.150777        -1.831030
 H         1.722414        -2.387326         1.547018
 H         3.997222        -0.860956         1.093612
