19
Iteration:  1129charge 0 multiplicity 1
 C        -0.019333         0.278754         0.448407
 C         1.415563         0.115947         0.044153
 C         1.977342         0.717645        -1.159824
 C         3.262017        -0.078912        -1.132271
 C         2.781314        -1.515988        -1.567473
 C         2.087164        -1.433417        -0.121254
 O         1.563057        -2.502002         0.637016
 C         3.322244        -0.490223         0.353614
 O         2.467015         0.410761         1.078459
 H        -0.511395        -0.147576         1.416115
 H        -0.319922         1.404417         0.607331
 H        -0.461122        -0.093727        -0.479280
 H         1.384307         0.437012        -1.986777
 H         2.098391         1.816206        -1.183232
 H         4.120311         0.289848        -1.632082
 H         2.068454        -1.673819        -2.486236
 H         3.682249        -2.205231        -1.554771
 H         1.139062        -3.057430        -0.024035
 H         4.343340        -0.601327         0.841446
