19
Iteration:  1351
 C        -0.008236         0.244409         0.464105
 C         1.437251         0.112219         0.156307
 C         2.039949         0.777797        -1.259797
 C         3.280533        -0.138563        -1.216792
 C         2.626996        -1.514374        -1.504662
 C         2.126359        -1.382555        -0.076183
 O         1.544571        -2.419566         0.578186
 C         3.267835        -0.527399         0.334442
 O         2.496504         0.401970         1.136651
 H        -0.214919        -0.567217         1.152019
 H        -0.205218         1.297481         0.654795
 H        -0.690292         0.055660        -0.430432
 H         1.625387         0.512491        -2.231961
 H         2.156181         1.794328        -1.080854
 H         4.264098         0.212895        -1.746537
 H         1.934339        -1.646142        -2.452062
 H         3.391767        -2.269873        -1.519468
 H         1.535423        -3.283717         0.104341
 H         4.235109        -0.841167         0.696620
