19
Iteration:  1661
 C         0.110608         0.351289         0.537332
 C         1.441085         0.038603         0.060154
 C         2.060392         0.842284        -1.202921
 C         3.246947        -0.067618        -1.186652
 C         2.482097        -1.489932        -1.549920
 C         2.080330        -1.456033        -0.042894
 O         1.648033        -2.637702         0.491911
 C         3.261770        -0.530003         0.327518
 O         2.524240         0.415545         1.069391
 H        -0.222068        -0.136142         1.473818
 H        -0.182535         1.398195         0.442907
 H        -0.493198        -0.009882        -0.272586
 H         1.487634         0.731869        -2.091386
 H         2.278255         1.883007        -0.849732
 H         4.112933         0.217285        -1.740132
 H         1.709939        -1.391787        -2.404168
 H         3.212504        -2.365489        -1.538955
 H         0.887687        -2.525815         1.124575
 H         4.200328        -0.684249         0.900653
