19
Iteration:  2908
 C        -0.060088         0.318314         0.486525
 C         1.372844         0.111935        -0.023254
 C         2.125912         0.772397        -1.195983
 C         3.365348        -0.158311        -1.165827
 C         2.765065        -1.490782        -1.416105
 C         2.102937        -1.445011        -0.146203
 O         1.661121        -2.610815         0.490559
 C         3.180937        -0.436340         0.386984
 O         2.307201         0.453693         1.036804
 H        -0.145061        -0.335651         1.350807
 H        -0.363973         1.332047         0.592549
 H        -0.826409        -0.254726        -0.169334
 H         1.599680         0.761164        -2.199164
 H         2.375343         1.781844        -0.852617
 H         4.301527         0.231992        -1.629425
 H         2.336773        -1.736911        -2.420330
 H         3.332787        -2.392579        -1.257056
 H         1.388284        -2.427419         1.388097
 H         4.207419        -0.679815         0.976584
