19
Iteration:  1496
 C         0.014977         0.338615         0.510996
 C         1.415911         0.105417         0.051711
 C         1.960169         0.757830        -1.148138
 C         3.333286        -0.155617        -1.208028
 C         2.686203        -1.521062        -1.601145
 C         2.032067        -1.333516        -0.185097
 O         1.708928        -2.437452         0.627720
 C         3.214386        -0.613508         0.319391
 O         2.489620         0.357612         1.124369
 H        -0.003705        -0.096368         1.518917
 H        -0.151662         1.420556         0.453520
 H        -0.757110         0.014147        -0.268310
 H         1.384993         0.605919        -2.042115
 H         1.983533         1.803073        -0.830134
 H         4.209035         0.071845        -1.667602
 H         1.869823        -1.644405        -2.348734
 H         3.537205        -2.203427        -1.552910
 H         0.809549        -2.673248         0.277569
 H         4.005294        -1.124226         0.894474
