19
Iteration:  2955
 C        -0.060168         0.292307         0.304302
 C         1.402191         0.011080         0.093245
 C         2.012298         0.699909        -1.218129
 C         3.360208        -0.082890        -1.182050
 C         2.870181        -1.458136        -1.514302
 C         2.075056        -1.374327        -0.085851
 O         1.476194        -2.454430         0.622489
 C         3.334676        -0.437627         0.351167
 O         2.377012         0.318755         1.148210
 H        -0.482838        -0.493360         0.940307
 H        -0.073526         1.306207         0.548957
 H        -0.637559         0.185959        -0.569160
 H         1.454101         0.331034        -2.065063
 H         2.046220         1.789347        -1.083453
 H         4.054346         0.464371        -1.773815
 H         2.215565        -1.531400        -2.312415
 H         3.636827        -2.154712        -1.954058
 H         1.973991        -2.948504         1.395843
 H         4.160553        -0.748652         0.908549
