19
Iteration:  1889charge 0 multiplicity 1
 C         0.102222         0.259886         0.443312
 C         1.499479         0.009864         0.096315
 C         1.947249         0.796921        -1.137150
 C         3.251481        -0.101097        -1.219389
 C         2.702470        -1.462765        -1.576921
 C         2.108064        -1.404963        -0.069264
 O         1.471599        -2.468323         0.521798
 C         3.328280        -0.527234         0.310434
 O         2.454554         0.350642         1.085450
 H        -0.200754        -0.247484         1.430428
 H        -0.027530         1.387773         0.575178
 H        -0.697236        -0.352643        -0.082936
 H         1.230118         0.578055        -2.040428
 H         2.179994         1.940735        -1.013818
 H         4.155746         0.333977        -1.776764
 H         1.947620        -1.816921        -2.264101
 H         3.506997        -2.145860        -1.545125
 H         1.399287        -2.079027         1.415022
 H         4.353253        -0.734154         0.753612
