19
Iteration:   657charge 0 multiplicity 1
 C        -0.023006         0.232403         0.376757
 C         1.413258         0.037100         0.055856
 C         1.933454         0.682910        -1.174687
 C         3.287542        -0.022432        -1.194683
 C         2.926140        -1.580319        -1.468214
 C         2.141846        -1.416968        -0.092443
 O         1.427416        -2.469034         0.537675
 C         3.283279        -0.363429         0.416221
 O         2.415958         0.421809         1.095774
 H        -0.236027        -0.357050         1.253219
 H        -0.213761         1.326040         0.737338
 H        -0.621543        -0.176726        -0.393609
 H         1.373269         0.552105        -2.193066
 H         2.128259         1.727936        -0.830059
 H         4.242546         0.356341        -1.770104
 H         2.310427        -1.575249        -2.446560
 H         3.741547        -2.279647        -1.413638
 H         1.875329        -3.287061         0.355760
 H         4.284188        -0.524580         0.884244
