19
Iteration:  1176
 C         0.024768         0.314056         0.443951
 C         1.433983         0.046635         0.021844
 C         2.020994         0.819823        -1.140627
 C         3.266574        -0.134889        -1.171737
 C         2.694715        -1.589345        -1.533700
 C         2.093859        -1.399935        -0.166750
 O         1.589153        -2.488933         0.563435
 C         3.250370        -0.515491         0.345280
 O         2.378674         0.425518         1.066967
 H        -0.025776        -0.300912         1.385565
 H        -0.138783         1.304341         0.936842
 H        -0.709342        -0.067839        -0.361161
 H         1.330016         0.842341        -2.051956
 H         2.312359         1.829668        -0.917235
 H         4.274912         0.163855        -1.633477
 H         2.168207        -1.576882        -2.514041
 H         3.407178        -2.390895        -1.434424
 H         2.305428        -2.711221         1.257379
 H         4.096653        -0.734795         1.000831
