19
Iteration:  2168charge 0 multiplicity 1
 C         0.029947         0.285675         0.470448
 C         1.400439         0.065200         0.065005
 C         1.945053         0.703171        -1.223980
 C         3.295331        -0.110133        -1.185551
 C         2.796183        -1.536176        -1.516359
 C         2.171726        -1.417712        -0.026202
 O         1.398544        -2.456174         0.512357
 C         3.318666        -0.475427         0.360244
 O         2.461128         0.396766         1.087383
 H        -0.485734        -0.487885         1.018610
 H         0.029905         1.288697         0.987844
 H        -0.702080         0.393051        -0.435439
 H         1.363587         0.652676        -2.172252
 H         1.945443         1.846416        -1.093333
 H         4.187213         0.290447        -1.777689
 H         2.122268        -1.609571        -2.327596
 H         3.766699        -2.098929        -1.569830
 H         2.015357        -3.013369         1.038724
 H         4.444429        -0.654640         0.754076
