19
Iteration:  2785
 C        -0.127048         0.322660         0.325271
 C         1.335581         0.083350         0.010238
 C         2.039884         0.763694        -1.169310
 C         3.297431        -0.115751        -1.143507
 C         2.818524        -1.492177        -1.517446
 C         2.189382        -1.418426        -0.076885
 O         1.585424        -2.555126         0.564375
 C         3.286642        -0.515090         0.448137
 O         2.378820         0.418730         1.087582
 H        -0.568709        -0.350240         1.009320
 H        -0.170661         1.396380         0.705664
 H        -0.673424         0.063502        -0.526950
 H         1.625968         0.668962        -2.153769
 H         2.222360         1.839754        -1.298450
 H         3.987197         0.293808        -1.816772
 H         2.139574        -1.504275        -2.425673
 H         3.586521        -2.206456        -1.512828
 H         2.198728        -2.869477         1.292184
 H         4.073210        -0.857367         1.121159
