19
Iteration:  2080
 C        -0.069351         0.239992         0.321379
 C         1.447592         0.133776         0.067007
 C         2.002357         0.740603        -1.166262
 C         3.302103        -0.056207        -1.179363
 C         2.608468        -1.515833        -1.469637
 C         2.099800        -1.382470        -0.090584
 O         1.559031        -2.499785         0.535676
 C         3.315752        -0.501791         0.298433
 O         2.572215         0.342595         1.162010
 H        -0.391242        -0.230026         1.199047
 H        -0.228469         1.348087         0.152743
 H        -0.629986        -0.347033        -0.470941
 H         1.318340         0.500485        -1.965622
 H         2.215288         1.784657        -0.874620
 H         4.001306         0.460572        -1.933715
 H         1.962041        -1.672581        -2.244901
 H         3.467091        -2.160529        -1.331359
 H         1.363704        -2.249768         1.483578
 H         4.284704        -0.984429         0.792089
