19
Iteration:  4910
 C         0.018977         0.169621         0.454540
 C         1.449531         0.102704         0.065073
 C         2.094480         0.849925        -1.160219
 C         3.377096        -0.099954        -1.121153
 C         2.799737        -1.496115        -1.499742
 C         2.064804        -1.413540        -0.134680
 O         1.284852        -2.403798         0.537346
 C         3.312841        -0.567859         0.390659
 O         2.485755         0.393071         1.068969
 H        -0.301553        -0.654215         1.127263
 H        -0.191095         1.110170         0.987074
 H        -0.449672         0.212062        -0.535465
 H         1.252301         0.748879        -1.982410
 H         2.199207         1.938422        -1.051121
 H         4.278729         0.211601        -1.789055
 H         2.136807        -1.729121        -2.270510
 H         3.573335        -2.196555        -1.568713
 H         1.461047        -3.252732        -0.012832
 H         4.233756        -0.914013         0.808288
