19
Iteration:  3819charge 0 multiplicity 1
 C        -0.046484         0.184876         0.312945
 C         1.448465         0.046379        -0.041272
 C         2.073995         0.829147        -1.214335
 C         3.366890        -0.086413        -1.114974
 C         2.847202        -1.502468        -1.449935
 C         2.116848        -1.417152        -0.076819
 O         1.451244        -2.403306         0.580047
 C         3.295939        -0.493043         0.435370
 O         2.303867         0.365000         1.071790
 H        -0.167131        -0.133448         1.280886
 H        -0.571942         1.169249         0.220518
 H        -0.589520        -0.399913        -0.451058
 H         1.485763         0.735081        -2.212562
 H         2.015941         1.962592        -0.851392
 H         4.313448         0.243154        -1.442008
 H         2.374210        -1.725003        -2.388662
 H         3.702646        -2.268941        -1.314641
 H         1.996338        -3.169626         0.674440
 H         4.053177        -0.698013         1.184363
