19
Iteration:  3985
 C        -0.010744         0.253476         0.357533
 C         1.404764         0.072593        -0.014318
 C         2.115413         0.784466        -1.241818
 C         3.346670        -0.104782        -1.104390
 C         2.829375        -1.501100        -1.478977
 C         2.092514        -1.389086        -0.071688
 O         1.612113        -2.580968         0.500989
 C         3.222166        -0.550581         0.469259
 O         2.291924         0.497083         1.069370
 H        -0.228145        -0.347104         1.205281
 H        -0.388252         1.242153         0.518342
 H        -0.583393         0.028023        -0.508617
 H         1.447812         0.775842        -2.142265
 H         2.204197         1.932627        -1.046921
 H         4.336190         0.278564        -1.485382
 H         2.176887        -1.894629        -2.294447
 H         3.616784        -2.282631        -1.300126
 H         0.904852        -2.445882         1.102673
 H         3.985812        -0.891945         1.174658
