19
Iteration:  1050charge 0 multiplicity 1
 C        -0.008407         0.229486         0.353539
 C         1.435637         0.055489         0.062210
 C         2.025686         0.718468        -1.161821
 C         3.251076        -0.063160        -1.159657
 C         2.744336        -1.526008        -1.484875
 C         2.086115        -1.390515        -0.092843
 O         1.524408        -2.438762         0.543492
 C         3.289340        -0.465557         0.310504
 O         2.440377         0.390604         1.114495
 H        -0.238980        -0.577589         1.088239
 H        -0.265234         1.257950         0.695505
 H        -0.703340         0.016531        -0.522319
 H         1.537467         0.597258        -2.088301
 H         2.039648         1.784862        -0.999774
 H         4.163754         0.303038        -1.654799
 H         2.067767        -1.615059        -2.317271
 H         3.583180        -2.242657        -1.224009
 H         2.295725        -2.791068         1.084950
 H         4.130140        -0.824503         0.825096
