19
Iteration:  1922charge 0 multiplicity 1
 C        -0.104163         0.234337         0.469343
 C         1.445762         0.074802         0.035676
 C         2.004178         0.830725        -1.128043
 C         3.365472        -0.151470        -1.234707
 C         2.657149        -1.461256        -1.575218
 C         2.033155        -1.322819        -0.116358
 O         1.586397        -2.413692         0.632656
 C         3.277169        -0.589066         0.327450
 O         2.482132         0.324252         1.056945
 H        -0.147436        -0.296953         1.459270
 H        -0.386779         1.313018         0.687125
 H        -0.884515         0.062823        -0.291500
 H         1.497081         0.630885        -2.126572
 H         2.441409         1.846626        -0.818788
 H         4.326037         0.160264        -1.746511
 H         1.973857        -1.671061        -2.387515
 H         3.381122        -2.225002        -1.554848
 H         2.279699        -2.977983         0.947371
 H         4.211455        -0.958397         0.800345
