19
Iteration:  2581
 C        -0.045058         0.333844         0.332013
 C         1.440251         0.026715         0.042184
 C         1.974604         0.723466        -1.269927
 C         3.259512        -0.027338        -1.085731
 C         2.847036        -1.611962        -1.426952
 C         2.139022        -1.404331        -0.125366
 O         1.571045        -2.560930         0.518177
 C         3.296761        -0.456709         0.404905
 O         2.375389         0.452694         1.114276
 H        -0.385050        -0.497311         0.881303
 H        -0.206981         1.258826         0.846236
 H        -0.711106         0.230791        -0.570691
 H         1.596156         0.323267        -2.201277
 H         1.958556         1.793701        -1.155964
 H         4.049158         0.473756        -1.465635
 H         2.108683        -1.532417        -2.234985
 H         3.559423        -2.298145        -1.760591
 H         1.647098        -2.375733         1.465236
 H         4.232776        -0.818004         0.963881
