19
Iteration:  4511charge 0 multiplicity 1
 C        -0.025830         0.398460         0.253154
 C         1.396222         0.054664         0.025976
 C         2.030080         0.751055        -1.180649
 C         3.301884        -0.085624        -1.080283
 C         2.835931        -1.488307        -1.454249
 C         2.069746        -1.423843        -0.121807
 O         1.503316        -2.581230         0.583176
 C         3.282449        -0.519530         0.408087
 O         2.435052         0.418221         1.148735
 H        -0.258779         0.290993         1.331199
 H        -0.481067         1.311818        -0.083054
 H        -0.496225        -0.543064        -0.138510
 H         1.536925         0.597375        -2.133063
 H         2.201516         1.792246        -1.078161
 H         4.179950         0.372030        -1.565248
 H         2.215387        -1.576438        -2.377513
 H         3.718814        -2.122609        -1.346358
 H         1.441146        -3.257717        -0.141543
 H         4.177009        -0.666093         0.970042
