19
Iteration:   807
 C         0.013340         0.200828         0.471045
 C         1.376874        -0.014881         0.056116
 C         2.060036         0.760098        -1.233064
 C         3.370153        -0.117428        -1.166607
 C         2.845213        -1.521530        -1.513157
 C         2.107646        -1.378623        -0.076222
 O         1.502375        -2.452430         0.553031
 C         3.248368        -0.471569         0.411545
 O         2.291842         0.481358         1.020369
 H        -0.006007        -0.427975         1.417224
 H        -0.253665         1.235469         0.686327
 H        -0.773563        -0.044694        -0.415074
 H         1.476817         0.803200        -2.146920
 H         2.304080         1.720257        -0.838127
 H         4.187334         0.404454        -1.713328
 H         2.209744        -1.742893        -2.330453
 H         3.569898        -2.372744        -1.630893
 H         2.127941        -3.153017         0.585596
 H         4.117490        -0.529748         1.154738
