19
Iteration:  3233charge 0 multiplicity 1
 C        -0.090948         0.297969         0.327213
 C         1.379558         0.041750         0.022730
 C         1.999451         0.769007        -1.185207
 C         3.314313        -0.098189        -1.128963
 C         2.843847        -1.576038        -1.461980
 C         2.225409        -1.425093        -0.053120
 O         1.537294        -2.480977         0.507250
 C         3.261463        -0.511749         0.504619
 O         2.380964         0.449483         1.083063
 H        -0.345935        -0.036107         1.309257
 H        -0.212014         1.444987         0.232569
 H        -0.706620        -0.191602        -0.517992
 H         1.459709         0.807843        -2.127408
 H         1.878865         1.853206        -1.081461
 H         4.034900         0.524620        -1.537044
 H         2.175604        -1.727875        -2.368907
 H         3.661459        -2.239686        -1.365431
 H         1.853599        -3.254849         0.084149
 H         4.246570        -0.814825         0.971616
