19
Iteration:   260charge 0 multiplicity 1
 C        -0.012075         0.229004         0.272495
 C         1.438191         0.021298         0.020933
 C         1.966178         0.728964        -1.178816
 C         3.320546        -0.010378        -1.145346
 C         2.758253        -1.428975        -1.554979
 C         2.143831        -1.396186        -0.085531
 O         1.630121        -2.539965         0.628893
 C         3.267646        -0.510768         0.403088
 O         2.388640         0.409821         1.156029
 H        -0.356785        -0.308363         1.154142
 H        -0.310286         1.263977         0.382956
 H        -0.549160        -0.331717        -0.542377
 H         1.416477         0.587016        -2.193157
 H         2.118032         1.828603        -0.970945
 H         4.016646         0.455001        -1.693282
 H         2.274968        -1.591953        -2.464369
 H         3.564039        -2.216130        -1.461244
 H         0.737840        -2.493620         0.887063
 H         4.141086        -0.873486         0.908200
