19
Iteration:  1474
 C        -0.021883         0.366590         0.550442
 C         1.419172         0.147080         0.113177
 C         2.103275         0.823515        -1.251679
 C         3.264277        -0.135420        -1.204921
 C         2.643236        -1.487456        -1.568690
 C         2.069210        -1.448162        -0.123791
 O         1.718270        -2.600150         0.593941
 C         3.260361        -0.554141         0.308488
 O         2.400927         0.342223         1.081244
 H        -0.137951        -0.044168         1.557440
 H        -0.179089         1.466121         0.530704
 H        -0.765948         0.104896        -0.292187
 H         1.631150         0.753058        -2.223463
 H         2.368139         1.872506        -1.058658
 H         4.084679         0.159124        -1.749159
 H         1.987281        -1.334202        -2.442346
 H         3.234770        -2.374487        -1.407123
 H         0.777703        -2.555379         0.849817
 H         4.184760        -0.641711         0.897354
