19
Iteration:  4486
 C        -0.081921         0.472108         0.426882
 C         1.310074         0.046493         0.035656
 C         2.064152         0.712884        -1.191358
 C         3.439489        -0.174323        -1.103015
 C         2.856703        -1.544731        -1.513373
 C         2.131302        -1.379871        -0.187093
 O         1.648355        -2.513671         0.537459
 C         3.167338        -0.547966         0.459039
 O         2.295613         0.420431         1.094961
 H        -0.205706         0.403058         1.543441
 H        -0.397036         1.482708         0.156255
 H        -0.720532        -0.266899         0.059609
 H         1.595778         0.589361        -2.211578
 H         2.287176         1.852633        -1.109990
 H         4.365608         0.219446        -1.603712
 H         2.268597        -1.709482        -2.363414
 H         3.694917        -2.272597        -1.246109
 H         1.400052        -3.157264        -0.206920
 H         3.896796        -0.831097         1.087764
