19
Iteration:  3154charge 0 multiplicity 1
 C        -0.024108         0.108639         0.288240
 C         1.454949        -0.049560         0.016845
 C         2.079136         0.774272        -1.226681
 C         3.371034        -0.039251        -1.207922
 C         2.840674        -1.498064        -1.413042
 C         2.044927        -1.354915        -0.146399
 O         1.392131        -2.441025         0.603634
 C         3.292202        -0.417884         0.400291
 O         2.392319         0.433683         1.125559
 H        -0.429578        -0.628178         1.050981
 H        -0.279225         1.143998         0.828480
 H        -0.526122         0.133460        -0.701268
 H         1.189157         0.544250        -1.880399
 H         2.206755         1.808839        -0.717176
 H         4.296291         0.320689        -1.697710
 H         2.279530        -1.605380        -2.385107
 H         3.718490        -2.231916        -1.230479
 H         2.103100        -2.952841         0.910306
 H         4.113612        -0.855417         0.958414
