19
Iteration:   358charge 0 multiplicity 1
 C        -0.039294         0.182197         0.405322
 C         1.365609         0.006003         0.052565
 C         1.992010         0.779304        -1.192797
 C         3.261164        -0.096854        -1.277517
 C         2.850136        -1.598447        -1.449170
 C         2.212699        -1.351968        -0.067831
 O         1.512319        -2.469439         0.550252
 C         3.295822        -0.417876         0.440307
 O         2.380211         0.453154         1.101660
 H        -0.500162        -0.465771         1.129974
 H        -0.117322         1.213302         0.662136
 H        -0.547208        -0.047799        -0.565135
 H         1.300286         0.998136        -2.103905
 H         2.246182         1.763066        -0.714620
 H         4.084105         0.389396        -1.655643
 H         2.392097        -1.647348        -2.373842
 H         3.692968        -2.344366        -1.339515
 H         1.560976        -3.274453         0.072160
 H         4.282380        -0.515917         0.873295
