19
Iteration:  2641
 C        -0.043822         0.281029         0.310173
 C         1.416280         0.025162        -0.015575
 C         2.037552         0.770574        -1.212178
 C         3.317483        -0.072581        -1.155922
 C         2.835217        -1.485357        -1.531262
 C         2.116850        -1.447400        -0.104983
 O         1.554515        -2.415611         0.677070
 C         3.231640        -0.524404         0.449332
 O         2.326447         0.362162         1.068406
 H        -0.166814        -0.169196         1.353734
 H        -0.474393         1.307714         0.458762
 H        -0.645367        -0.264521        -0.379141
 H         1.505573         0.547721        -2.161955
 H         1.997799         1.892124        -1.186442
 H         4.443889         0.055121        -1.430442
 H         2.095611        -1.371404        -2.336364
 H         3.721709        -2.163898        -1.680519
 H         2.305185        -2.919976         0.935747
 H         4.115847        -0.787734         0.967505
