19
Iteration:  3376charge 0 multiplicity 1
 C        -0.070677         0.356622         0.407018
 C         1.413235         0.078419        -0.018927
 C         2.037087         0.756691        -1.226668
 C         3.364351        -0.094693        -1.153559
 C         2.860630        -1.477471        -1.490128
 C         2.125451        -1.425271        -0.107613
 O         1.613778        -2.626973         0.565144
 C         3.261459        -0.474927         0.442624
 O         2.335760         0.380920         1.080477
 H        -0.436194        -0.334558         1.246263
 H        -0.216262         1.391734         0.765790
 H        -0.873310         0.138963        -0.389557
 H         1.600163         0.830156        -2.263905
 H         2.099171         1.822624        -0.944916
 H         4.157834         0.364479        -1.773048
 H         2.114778        -1.679818        -2.356276
 H         3.652452        -2.206540        -1.551497
 H         0.736619        -2.427167         0.791406
 H         4.017969        -0.770361         1.253247
