19
Iteration:  4508charge 0 multiplicity 1
 C        -0.032355         0.399160         0.275990
 C         1.403464         0.068866         0.031960
 C         2.051636         0.734212        -1.184901
 C         3.291669        -0.091099        -1.094551
 C         2.853790        -1.497122        -1.472473
 C         2.035509        -1.421007        -0.115041
 O         1.515656        -2.594667         0.580570
 C         3.289767        -0.517830         0.395418
 O         2.418610         0.426589         1.157923
 H        -0.276542         0.293683         1.354942
 H        -0.479209         1.310298        -0.146814
 H        -0.535852        -0.441070        -0.122442
 H         1.480550         0.562767        -2.155229
 H         2.244087         1.887668        -1.065459
 H         4.203264         0.412059        -1.525124
 H         2.318119        -1.512247        -2.372225
 H         3.750188        -2.208606        -1.362119
 H         1.452437        -3.229561        -0.102365
 H         4.106993        -0.656623         0.994901
