19
Iteration:  3308charge 0 multiplicity 1
 C        -0.048194         0.126760         0.394609
 C         1.340352         0.036104         0.037152
 C         2.109529         0.766423        -1.178228
 C         3.417584        -0.101983        -1.108402
 C         2.815397        -1.531742        -1.528220
 C         2.091995        -1.372066        -0.180060
 O         1.451484        -2.423298         0.570308
 C         3.299760        -0.389096         0.360041
 O         2.326055         0.404132         1.111302
 H        -0.287708        -0.704960         0.990734
 H        -0.203180         1.184615         0.855842
 H        -0.591987        -0.109021        -0.584435
 H         1.722312         0.792920        -2.233881
 H         2.311567         1.920876        -0.981033
 H         4.336617         0.085653        -1.553513
 H         2.231693        -1.704772        -2.424173
 H         3.577547        -2.401609        -1.588094
 H         1.912518        -2.501073         1.481339
 H         4.158312        -0.830467         0.909010
