19
Iteration:  1738
 C         0.043823         0.196183         0.581412
 C         1.458492         0.039347         0.069097
 C         2.040871         0.749952        -1.153852
 C         3.258356        -0.165207        -1.249171
 C         2.652424        -1.498736        -1.633620
 C         2.114518        -1.363047        -0.161627
 O         1.426156        -2.449271         0.540782
 C         3.315266        -0.488255         0.319371
 O         2.482052         0.449923         1.119049
 H        -0.082961        -0.382557         1.509934
 H        -0.158276         1.221326         0.981043
 H        -0.627298         0.131088        -0.217597
 H         1.620337         0.848918        -2.121452
 H         2.334592         1.815225        -0.968807
 H         4.289838         0.012300        -1.675063
 H         1.704760        -1.612135        -2.269843
 H         3.453935        -2.309460        -1.856836
 H         2.130489        -2.739994         1.108709
 H         4.128246        -0.802548         1.028693
