19
Iteration:  1391
 C         0.101444         0.177991         0.547683
 C         1.451320        -0.003229         0.022282
 C         2.052975         0.797107        -1.166309
 C         3.258942        -0.144977        -1.183541
 C         2.693157        -1.516794        -1.572338
 C         2.115818        -1.406388        -0.135917
 O         1.421136        -2.321764         0.584925
 C         3.247287        -0.522904         0.326284
 O         2.448022         0.438143         1.035273
 H        -0.167548        -0.576570         1.326099
 H        -0.112984         1.132233         1.059718
 H        -0.514928        -0.033035        -0.244606
 H         1.436247         0.752318        -2.082269
 H         2.152131         1.888739        -0.840912
 H         4.254086         0.064612        -1.601064
 H         2.292109        -1.666225        -2.574019
 H         3.478550        -2.311944        -1.564685
 H         2.079830        -2.916515         0.958930
 H         4.072823        -0.922746         0.917842
