19
Iteration:   800
 C        -0.008871         0.169205         0.499002
 C         1.333373        -0.054597        -0.017593
 C         2.082350         0.765489        -1.210494
 C         3.396188        -0.074024        -1.140890
 C         2.795636        -1.581085        -1.510753
 C         2.169844        -1.373495        -0.145118
 O         1.481306        -2.445236         0.567587
 C         3.267829        -0.404310         0.402951
 O         2.292485         0.458725         1.033533
 H        -0.309778        -0.204544         1.448132
 H         0.113150         1.267082         0.673498
 H        -0.623399        -0.093574        -0.226705
 H         1.521495         0.771875        -2.178967
 H         2.207940         1.766257        -0.748371
 H         4.356506         0.348897        -1.607148
 H         2.071000        -1.613481        -2.411544
 H         3.560567        -2.326841        -1.508242
 H         2.095234        -3.126855         0.783503
 H         4.116193        -0.535695         0.969475
