19
Iteration:   373charge 0 multiplicity 1
 C        -0.041603         0.208992         0.356953
 C         1.427061         0.019788         0.046618
 C         1.997421         0.776309        -1.141262
 C         3.297153        -0.001285        -1.204497
 C         2.879177        -1.501606        -1.447998
 C         2.106648        -1.459986        -0.136116
 O         1.462881        -2.445457         0.618370
 C         3.312373        -0.401979         0.301769
 O         2.366212         0.368749         1.102345
 H        -0.266448        -0.479136         1.224445
 H        -0.309947         1.259667         0.724779
 H        -0.686887        -0.046641        -0.447110
 H         1.432759         0.644700        -2.059617
 H         2.174823         1.868565        -0.902746
 H         4.178875         0.299379        -1.814243
 H         2.335007        -2.115747        -2.215066
 H         3.762006        -2.079253        -1.301536
 H         2.093604        -3.182367         0.419635
 H         4.209837        -0.784720         0.877851
