19
Iteration:   817
 C        -0.032691         0.219561         0.441874
 C         1.442437         0.112957        -0.004486
 C         2.036966         0.721481        -1.203545
 C         3.291177        -0.118226        -1.205366
 C         2.839863        -1.496913        -1.482433
 C         2.106667        -1.408200        -0.080859
 O         1.520643        -2.480105         0.558546
 C         3.242613        -0.469880         0.454857
 O         2.354124         0.481201         1.049492
 H        -0.231100        -0.567940         1.259011
 H        -0.370817         1.191525         0.837270
 H        -0.809957        -0.286049        -0.384421
 H         1.528425         0.631259        -2.159733
 H         2.238099         1.779928        -1.067088
 H         4.234506         0.220487        -1.625501
 H         2.265823        -1.546501        -2.373379
 H         3.695577        -2.236540        -1.339845
 H         2.079831        -3.208913         0.394021
 H         4.178308        -0.881044         1.031839
