19
Iteration:    90
 C        -0.083153         0.220007         0.294331
 C         1.378126         0.049120        -0.012189
 C         1.977990         0.731890        -1.225044
 C         3.313583        -0.053755        -1.068583
 C         2.873696        -1.512611        -1.566091
 C         2.171065        -1.353242        -0.166644
 O         1.703463        -2.348253         0.602695
 C         3.247886        -0.593394         0.518294
 O         2.327977         0.342820         1.144122
 H        -0.221235        -0.330744         1.271209
 H        -0.471987         1.245828         0.520476
 H        -0.782728        -0.138144        -0.387028
 H         1.392747         0.263303        -2.094477
 H         1.840488         1.829343        -1.342297
 H         4.283245         0.527525        -1.555531
 H         2.383349        -1.671076        -2.586671
 H         3.704522        -2.164778        -1.461535
 H         0.768166        -2.359398         0.671661
 H         3.995272        -1.134955         1.072820
