19
Iteration:  3889
 C        -0.055651         0.238994         0.293972
 C         1.372035         0.076379        -0.053932
 C         2.065579         0.750116        -1.185610
 C         3.401666        -0.201034        -1.133262
 C         2.805607        -1.513986        -1.524072
 C         2.120938        -1.356768        -0.120370
 O         1.555292        -2.564975         0.512589
 C         3.186032        -0.455948         0.579852
 O         2.310115         0.515821         1.105423
 H        -0.151610        -0.520838         1.214512
 H        -0.271877         1.208604         0.732435
 H        -0.772330         0.116511        -0.517125
 H         1.608861         0.848471        -2.185700
 H         2.397341         1.727232        -0.813931
 H         4.418503         0.148960        -1.634791
 H         2.299172        -1.693652        -2.501467
 H         3.619877        -2.167365        -1.482334
 H         2.058210        -2.713804         1.281906
 H         4.118455        -0.785894         1.076561
