19
Iteration:   765charge 0 multiplicity 1
 C        -0.012803         0.148582         0.411957
 C         1.459638         0.106191         0.060518
 C         1.967592         0.723357        -1.191469
 C         3.329497        -0.035429        -1.231629
 C         2.849849        -1.504802        -1.539838
 C         2.095847        -1.385726        -0.157709
 O         1.493947        -2.433593         0.620159
 C         3.218380        -0.492166         0.436575
 O         2.398274         0.392892         1.123178
 H        -0.516191        -0.407466         1.185577
 H        -0.350702         1.215199         0.309835
 H        -0.403902         0.034105        -0.547475
 H         1.363715         0.584127        -2.108433
 H         2.107216         1.789010        -1.192030
 H         4.318349         0.403074        -1.595322
 H         2.357860        -1.651658        -2.549890
 H         3.577172        -2.340320        -1.445412
 H         2.214173        -2.867201         1.057784
 H         4.090752        -0.989996         0.878483
