19
Iteration:  3358
 C        -0.101576         0.250307         0.376178
 C         1.373017         0.027295         0.077955
 C         2.103246         0.740841        -1.164846
 C         3.319617        -0.088700        -1.125695
 C         2.793745        -1.542501        -1.470807
 C         2.143661        -1.416407        -0.090026
 O         1.572133        -2.518510         0.489038
 C         3.308880        -0.437874         0.352984
 O         2.366481         0.456363         1.102486
 H        -0.631321        -0.588341         0.949480
 H        -0.148086         1.216166         0.835962
 H        -0.605518         0.152019        -0.547896
 H         1.451696         0.588929        -2.017219
 H         2.318936         1.773265        -1.019914
 H         4.359799         0.223590        -1.458660
 H         2.395974        -1.656131        -2.492654
 H         3.466070        -2.380011        -1.457742
 H         0.731442        -2.373716         0.846989
 H         4.294685        -0.524160         0.770518
