19
Iteration:  2310charge 0 multiplicity 1
 C        -0.030458         0.310906         0.467150
 C         1.382304         0.059054         0.020466
 C         1.997333         0.783283        -1.193262
 C         3.307077        -0.126882        -1.175775
 C         2.778891        -1.570301        -1.515624
 C         2.136003        -1.407656        -0.095893
 O         1.564013        -2.510270         0.510162
 C         3.321409        -0.537069         0.399588
 O         2.368804         0.446822         1.032959
 H        -0.036417        -0.282758         1.353870
 H        -0.243268         1.320594         0.690406
 H        -0.809842        -0.125762        -0.202580
 H         1.485263         0.926034        -2.148083
 H         2.135485         1.825851        -0.917456
 H         4.199678         0.176289        -1.609226
 H         2.109201        -1.565352        -2.352631
 H         3.676564        -2.230285        -1.591876
 H         1.606522        -2.384902         1.488691
 H         4.174838        -0.949773         1.051089
