19
Iteration:  1331charge 0 multiplicity 1
 C         0.039978         0.352289         0.418151
 C         1.456028         0.054043         0.084541
 C         1.945111         0.765744        -1.069703
 C         3.255329        -0.149810        -1.225619
 C         2.708465        -1.559683        -1.559368
 C         2.061847        -1.339956        -0.093834
 O         1.564278        -2.501546         0.611452
 C         3.310038        -0.500570         0.375104
 O         2.508714         0.407093         1.048090
 H        -0.245113        -0.373092         1.207759
 H        -0.192014         1.453939         0.458268
 H        -0.692079         0.044426        -0.515846
 H         1.113067         0.582226        -1.842936
 H         2.042299         1.850446        -0.883057
 H         4.108941         0.258580        -1.844875
 H         2.234826        -1.420790        -2.527554
 H         3.476273        -2.270926        -1.322519
 H         1.509768        -3.207137         0.005936
 H         4.096438        -1.034974         0.909459
