19
Iteration:  1517
 C         0.021384         0.319391         0.543762
 C         1.452998        -0.009137         0.066990
 C         2.029967         0.763199        -1.165109
 C         3.268946        -0.031887        -1.233721
 C         2.677687        -1.526705        -1.558044
 C         2.079750        -1.410057        -0.128483
 O         1.475979        -2.438422         0.683645
 C         3.369088        -0.502425         0.322100
 O         2.492393         0.337795         1.040084
 H        -0.207461        -0.281029         1.404380
 H        -0.204363         1.359451         0.524097
 H        -0.631899        -0.046379        -0.326211
 H         1.339770         0.616013        -1.968214
 H         2.355467         1.744159        -0.936410
 H         4.102918         0.459056        -1.627963
 H         1.948569        -1.555959        -2.525697
 H         3.544777        -2.201702        -1.655200
 H         1.040805        -3.025334         0.079586
 H         4.358571        -0.853075         0.631877
