19
Iteration:  2346
 C         0.021807         0.236909         0.424123
 C         1.427861         0.097750         0.039413
 C         2.019290         0.776461        -1.271164
 C         3.329544        -0.095494        -1.148240
 C         2.749468        -1.537998        -1.510589
 C         2.096244        -1.388274        -0.138752
 O         1.560076        -2.415772         0.626397
 C         3.272503        -0.549612         0.389611
 O         2.328256         0.420397         1.109298
 H        -0.321103        -0.607323         1.175078
 H        -0.108125         1.217865         0.990394
 H        -0.686654         0.287293        -0.443445
 H         1.445342         0.530717        -2.219290
 H         2.176286         1.812780        -0.928515
 H         4.266836         0.172350        -1.695294
 H         2.168219        -1.668613        -2.426183
 H         3.499726        -2.368296        -1.717846
 H         2.104276        -3.212717         0.514766
 H         4.171508        -0.873179         0.912449
