19
Iteration:  4773
 C        -0.067935         0.321170         0.456186
 C         1.394983         0.051547        -0.012691
 C         2.134990         0.835106        -1.152539
 C         3.323124        -0.128620        -1.050362
 C         2.814849        -1.545157        -1.555671
 C         2.111030        -1.416501        -0.116043
 O         1.478915        -2.498608         0.454771
 C         3.216073        -0.527913         0.377550
 O         2.453802         0.348489         1.095209
 H        -0.020340         0.120577         1.497934
 H        -0.393186         1.329101         0.341311
 H        -0.781627        -0.342865        -0.117736
 H         1.607542         0.995563        -2.141415
 H         2.317373         1.938669        -0.885572
 H         4.199008         0.191609        -1.545938
 H         2.392577        -1.405230        -2.519021
 H         3.486024        -2.448751        -1.569920
 H         0.994161        -2.253035         1.224164
 H         4.086333        -0.972944         0.895502
