19
Iteration:  3400charge 0 multiplicity 1
 C         0.046347         0.368548         0.379415
 C         1.422564         0.006833         0.006583
 C         2.021121         0.740095        -1.187752
 C         3.300382        -0.144727        -1.054252
 C         2.862070        -1.501831        -1.523278
 C         2.038993        -1.354439        -0.163645
 O         1.712631        -2.531490         0.530895
 C         3.185064        -0.517392         0.418551
 O         2.276932         0.375331         1.086467
 H        -0.284825         0.010633         1.486390
 H         0.056258         1.447138         0.430155
 H        -0.810805         0.064743        -0.245373
 H         1.712365         0.667484        -2.236462
 H         2.041014         1.776694        -1.053675
 H         4.222293         0.465059        -1.363069
 H         2.127485        -1.776286        -2.355501
 H         3.605259        -2.236313        -1.488500
 H         0.785107        -2.459387         0.859103
 H         4.134026        -0.800001         0.920411
