19
Iteration:  1156
 C        -0.022010         0.340240         0.469608
 C         1.404276        -0.015724         0.014364
 C         2.031740         0.716242        -1.193074
 C         3.286984        -0.065432        -1.228453
 C         2.716060        -1.492023        -1.479250
 C         2.127611        -1.383644        -0.072598
 O         1.555575        -2.483891         0.569441
 C         3.297713        -0.514809         0.367151
 O         2.407760         0.411884         1.105315
 H        -0.443531        -0.070834         1.336327
 H        -0.129867         1.387195         0.562962
 H        -0.629761         0.039320        -0.433471
 H         1.360624         0.612925        -2.132762
 H         2.190055         1.753143        -0.898196
 H         4.232400         0.223431        -1.776243
 H         1.974871        -1.714479        -2.235892
 H         3.437371        -2.241637        -1.733727
 H         2.225444        -3.181465         0.489210
 H         4.194017        -0.837840         0.838892
