19
Iteration:  1989
 C        -0.002589         0.255158         0.491734
 C         1.404542         0.119777         0.087979
 C         1.898656         0.707727        -1.196673
 C         3.323579        -0.139607        -1.213335
 C         2.802175        -1.544862        -1.522854
 C         2.081263        -1.377191        -0.143502
 O         1.533893        -2.456190         0.584967
 C         3.308195        -0.504223         0.322304
 O         2.509176         0.431119         1.094084
 H        -0.286836        -0.486370         1.280302
 H        -0.037937         1.277479         0.945218
 H        -0.707802         0.425468        -0.240681
 H         1.228972         0.370677        -1.940711
 H         2.092241         1.749162        -0.902211
 H         4.248592         0.272509        -1.527285
 H         2.376787        -1.691692        -2.463388
 H         3.487325        -2.282420        -1.279120
 H         0.875719        -2.835084        -0.100955
 H         4.185323        -0.763847         0.798523
