19
Iteration:  1869
 C        -0.015817         0.241727         0.593733
 C         1.464390         0.088447         0.058260
 C         2.008406         0.717086        -1.198988
 C         3.298522        -0.059895        -1.249650
 C         2.646800        -1.578046        -1.543242
 C         2.101063        -1.372457        -0.064634
 O         1.536519        -2.509252         0.466684
 C         3.302056        -0.470737         0.366367
 O         2.535927         0.417939         1.076903
 H        -0.273752        -0.260983         1.595342
 H        -0.305982         1.378043         0.607622
 H        -0.767235        -0.208811        -0.100619
 H         1.493483         0.609775        -2.171396
 H         2.294176         1.774479        -0.812877
 H         4.250995         0.298606        -1.740255
 H         2.026063        -1.590789        -2.454383
 H         3.429617        -2.313534        -1.583335
 H         0.741931        -2.384130         0.953319
 H         4.230725        -0.803294         0.803667
