19
Iteration:   855
 C        -0.044320         0.197247         0.326942
 C         1.395252         0.021473         0.071177
 C         2.000877         0.662184        -1.144504
 C         3.303691        -0.089685        -1.193426
 C         2.800823        -1.466146        -1.448148
 C         2.194581        -1.366861        -0.101620
 O         1.507252        -2.417146         0.616806
 C         3.325834        -0.460608         0.401919
 O         2.377713         0.425806         1.074880
 H        -0.376860        -0.498578         1.049251
 H        -0.241240         1.273413         0.477721
 H        -0.507018         0.137292        -0.551323
 H         1.278367         0.534984        -1.966509
 H         2.081052         1.759037        -0.955032
 H         4.160747         0.326522        -1.780720
 H         2.287667        -1.657453        -2.447818
 H         3.595531        -2.161435        -1.501628
 H         1.573250        -3.279684         0.104498
 H         4.203010        -0.705145         0.907737
