19
Iteration:  3846
 C        -0.102706         0.291265         0.282181
 C         1.413099        -0.026647         0.003783
 C         2.058460         0.680562        -1.155768
 C         3.337662        -0.103622        -1.140712
 C         2.957267        -1.498407        -1.523214
 C         2.090685        -1.407648        -0.108071
 O         1.476939        -2.419570         0.526851
 C         3.269223        -0.471070         0.429053
 O         2.341592         0.405212         1.173211
 H        -0.369918        -0.034405         1.402029
 H        -0.330499         1.356593         0.136327
 H        -0.732319        -0.185498        -0.482642
 H         1.453694         0.560525        -2.040868
 H         2.028603         1.720610        -1.077871
 H         4.247668         0.502311        -1.625134
 H         2.487943        -1.554244        -2.551467
 H         3.614821        -2.303784        -1.373237
 H         2.078081        -2.854723         1.129592
 H         4.071481        -0.717806         1.177048
