19
Iteration:  2249
 C         0.019178         0.219034         0.405326
 C         1.478108         0.010557         0.035996
 C         2.044313         0.831950        -1.188829
 C         3.260552        -0.091312        -1.159920
 C         2.749062        -1.547019        -1.532028
 C         2.066718        -1.430280        -0.096625
 O         1.562153        -2.426505         0.633299
 C         3.281980        -0.507572         0.378990
 O         2.399474         0.427061         1.050246
 H        -0.073043        -0.159386         1.489839
 H        -0.229010         1.275470         0.562829
 H        -0.757743        -0.238671        -0.198655
 H         1.559645         0.730864        -2.158556
 H         2.309924         1.774099        -0.762258
 H         4.162868         0.304457        -1.577923
 H         2.000016        -1.577586        -2.341741
 H         3.526816        -2.240555        -1.878310
 H         1.077180        -3.143350         0.287378
 H         4.176460        -0.721844         0.870118
