19
Iteration:  2967
 C        -0.069461         0.220675         0.262010
 C         1.452332        -0.010894         0.059110
 C         1.996701         0.686896        -1.208690
 C         3.321419        -0.029403        -1.208439
 C         2.788799        -1.495983        -1.576781
 C         2.179313        -1.413743        -0.082360
 O         1.450497        -2.391246         0.602428
 C         3.307062        -0.506577         0.430740
 O         2.409495         0.400346         1.186489
 H        -0.520808        -0.410712         1.026741
 H        -0.224385         1.161973         0.796315
 H        -0.580216         0.232527        -0.648772
 H         1.415871         0.578224        -2.121157
 H         2.059966         1.791651        -1.036869
 H         4.267529         0.359214        -1.590603
 H         2.141750        -1.537241        -2.406064
 H         3.551280        -2.303214        -1.373566
 H         2.141514        -2.844566         1.087629
 H         4.205239        -0.750196         0.880267
