19
Iteration:  4955
 C         0.057725         0.467344         0.433017
 C         1.400541         0.051145         0.062447
 C         2.071902         0.817373        -1.123856
 C         3.364062        -0.091285        -1.133128
 C         2.700855        -1.458584        -1.587348
 C         2.044766        -1.440322        -0.147438
 O         1.500452        -2.560425         0.493096
 C         3.298273        -0.594571         0.406120
 O         2.367085         0.302267         1.096747
 H        -0.120646         0.397105         1.511135
 H        -0.248210         1.514901         0.300691
 H        -0.738079        -0.139280        -0.141360
 H         1.569976         0.733135        -2.202906
 H         2.230690         1.891606        -0.866907
 H         4.389766         0.280335        -1.528663
 H         2.195342        -1.388729        -2.532979
 H         3.285098        -2.335641        -1.706887
 H         2.149359        -3.113009         1.051832
 H         4.078010        -0.896869         1.098910
