19
Iteration:  2623
 C        -0.065030         0.278519         0.366144
 C         1.320501         0.126571        -0.049088
 C         2.103856         0.794706        -1.226717
 C         3.352406        -0.086976        -1.094155
 C         2.759366        -1.605970        -1.502837
 C         2.139175        -1.443056        -0.122727
 O         1.654251        -2.524084         0.597697
 C         3.215589        -0.465768         0.397505
 O         2.284933         0.422841         1.099566
 H        -0.324385        -0.171931         1.295360
 H        -0.085336         1.413772         0.465852
 H        -0.792210        -0.077194        -0.366015
 H         1.586653         0.920717        -2.175631
 H         2.448333         1.797635        -0.909910
 H         4.108118         0.344728        -1.649972
 H         2.175329        -1.842031        -2.473323
 H         3.437379        -2.396616        -1.350956
 H         2.339965        -2.911026         1.111073
 H         4.097878        -0.801218         1.019644
