19
Iteration:  3926charge 0 multiplicity 1
 C        -0.047899         0.202117         0.266588
 C         1.432329         0.023826        -0.121084
 C         2.053812         0.818762        -1.253943
 C         3.351317        -0.077383        -1.091313
 C         2.830488        -1.456508        -1.453614
 C         2.119365        -1.432448        -0.115103
 O         1.533741        -2.446164         0.587126
 C         3.250310        -0.524686         0.464129
 O         2.376716         0.375392         1.159423
 H        -0.398721        -0.746577         0.710732
 H        -0.201130         1.052196         1.003459
 H        -0.739417         0.168169        -0.632924
 H         1.389375         0.561117        -2.134331
 H         2.170363         1.849745        -0.943154
 H         4.187848         0.293109        -1.644580
 H         2.180626        -1.716493        -2.299765
 H         3.596525        -2.304650        -1.317357
 H         1.101416        -2.015858         1.363898
 H         4.208296        -0.819161         0.941311
