19
Iteration:  3829charge 0 multiplicity 1
 C        -0.049961         0.205572         0.298572
 C         1.367122         0.072497        -0.018968
 C         2.018923         0.733348        -1.186808
 C         3.359363        -0.038036        -1.141016
 C         2.898956        -1.530903        -1.472894
 C         2.208813        -1.392388        -0.157229
 O         1.442089        -2.393429         0.576579
 C         3.196186        -0.540941         0.492031
 O         2.344172         0.395702         1.118121
 H        -0.301302        -0.097406         1.239786
 H        -0.170590         1.290354         0.130497
 H        -0.650774        -0.448144        -0.350367
 H         1.529293         0.771250        -2.227050
 H         2.253319         1.868528        -0.901087
 H         4.326978         0.177469        -1.479344
 H         2.242848        -1.791154        -2.303180
 H         3.883007        -2.117894        -1.464303
 H         2.098706        -3.081080         0.852119
 H         4.139732        -0.879151         0.966782
