19
Iteration:  4570
 C        -0.041063         0.059162         0.336356
 C         1.406245         0.084778         0.003446
 C         2.131724         0.902823        -1.217813
 C         3.395697        -0.091475        -1.097001
 C         2.787528        -1.484141        -1.463816
 C         2.065944        -1.341925        -0.159158
 O         1.380816        -2.366079         0.583366
 C         3.232731        -0.620776         0.462462
 O         2.415790         0.412551         1.067967
 H        -0.062448        -0.769051         1.048323
 H        -0.334294         1.059345         0.755837
 H        -0.649460        -0.208889        -0.538462
 H         1.817231         0.800661        -2.237942
 H         2.445105         1.871214        -1.020706
 H         4.353449         0.221846        -1.519726
 H         2.189437        -1.728672        -2.358946
 H         3.421437        -2.329939        -1.566621
 H         2.053358        -2.751254         1.100256
 H         4.198647        -1.165725         0.885033
