19
Iteration:  3066
 C        -0.163205         0.355205         0.365461
 C         1.408214         0.130314         0.053870
 C         2.037795         0.697463        -1.201204
 C         3.302046        -0.104106        -1.207733
 C         2.923684        -1.505327        -1.532136
 C         2.139242        -1.460180        -0.077610
 O         1.585601        -2.583315         0.574223
 C         3.311956        -0.486572         0.433769
 O         2.358194         0.417754         1.144131
 H        -0.451298        -0.132432         1.374105
 H        -0.485546         1.463457         0.357228
 H        -0.749393        -0.127517        -0.410534
 H         1.339423         0.762044        -2.030259
 H         2.309939         1.799347        -1.189616
 H         4.183294         0.497010        -1.568511
 H         2.377415        -1.784855        -2.451877
 H         3.854769        -2.180235        -1.347040
 H         0.687471        -2.556451         0.349579
 H         4.257273        -0.785432         0.758315
