19
Iteration:  1420
 C        -0.031843         0.319340         0.539136
 C         1.440578         0.093633         0.093517
 C         2.029909         0.732160        -1.233388
 C         3.303560        -0.043250        -1.290199
 C         2.721568        -1.502689        -1.510894
 C         2.133327        -1.383710        -0.062760
 O         1.441656        -2.449949         0.524030
 C         3.304517        -0.514568         0.265848
 O         2.517516         0.332797         1.139956
 H        -0.217154        -0.586043         1.180295
 H        -0.429635         1.339124         0.817538
 H        -0.718448        -0.088596        -0.351580
 H         1.351140         0.247139        -1.951788
 H         2.021603         1.845782        -1.163521
 H         4.164306         0.270781        -1.757828
 H         2.277381        -1.687158        -2.456365
 H         3.426035        -2.389262        -1.436226
 H         1.791269        -2.605616         1.398025
 H         4.105278        -1.042841         0.820969
