19
Iteration:    87charge 0 multiplicity 1
 C        -0.101168         0.225393         0.319084
 C         1.408906         0.037446        -0.009831
 C         1.966637         0.732253        -1.231974
 C         3.302488        -0.019932        -1.090047
 C         2.912267        -1.507230        -1.585778
 C         2.168908        -1.376690        -0.152585
 O         1.685456        -2.336921         0.609613
 C         3.260911        -0.588447         0.517240
 O         2.310418         0.317472         1.136142
 H        -0.196568        -0.241758         1.293941
 H        -0.405038         1.240288         0.461079
 H        -0.808151        -0.130324        -0.432229
 H         1.486952         0.264304        -1.976956
 H         1.934741         1.781078        -1.364870
 H         4.093990         0.461516        -1.554859
 H         2.428664        -1.638980        -2.540604
 H         3.735850        -2.215873        -1.386071
 H         0.662858        -2.293729         0.683581
 H         4.049367        -1.113222         1.037388
