19
Iteration:  1441charge 0 multiplicity 1
 C         0.066525         0.314298         0.456099
 C         1.431559         0.065255         0.098344
 C         1.954899         0.741023        -1.138018
 C         3.239826        -0.111346        -1.185134
 C         2.682445        -1.544311        -1.526260
 C         2.107802        -1.401202        -0.123725
 O         1.569423        -2.542213         0.474010
 C         3.299340        -0.534971         0.366921
 O         2.487437         0.429692         1.071759
 H        -0.332997        -0.178993         1.377176
 H         0.241773         1.394775         0.696191
 H        -0.768872         0.115666        -0.341358
 H         1.456958         0.650461        -2.103114
 H         2.225450         1.745914        -0.802352
 H         3.953794         0.376983        -1.775434
 H         2.012685        -1.670719        -2.397868
 H         3.236239        -2.476151        -1.654384
 H         1.335900        -2.077871         1.357797
 H         4.280834        -0.598668         0.868075
