19
Iteration:   125charge 0 multiplicity 1
 C        -0.112042         0.166741         0.284287
 C         1.363656         0.026757         0.017106
 C         2.158848         0.886254        -1.154392
 C         3.303839        -0.111574        -1.187836
 C         2.707119        -1.514501        -1.453490
 C         2.179481        -1.419556        -0.045006
 O         1.642957        -2.643448         0.643387
 C         3.319593        -0.424680         0.448550
 O         2.288799         0.519339         1.023583
 H        -0.402680        -0.619175         1.017169
 H        -0.294255         1.189985         0.725814
 H        -0.644440        -0.093095        -0.666443
 H         1.664024         1.055636        -2.242608
 H         2.388411         1.861925        -0.626546
 H         4.356905         0.267039        -1.706276
 H         2.045245        -1.706271        -2.359300
 H         3.677552        -2.041194        -1.505676
 H         0.998158        -2.928354        -0.020736
 H         4.193073        -0.482724         1.150273
