19
Iteration:  1428
 C         0.007931         0.321641         0.528086
 C         1.469763         0.046250         0.121387
 C         1.974042         0.734425        -1.196684
 C         3.276236        -0.135232        -1.232137
 C         2.704372        -1.509554        -1.524378
 C         2.075632        -1.392610        -0.131883
 O         1.506583        -2.465487         0.497017
 C         3.345097        -0.487986         0.319744
 O         2.482733         0.371737         1.110767
 H        -0.349722        -0.355360         1.306541
 H        -0.310635         1.349176         0.697399
 H        -0.476782         0.115043        -0.467427
 H         1.228833         0.481822        -1.979930
 H         2.052280         1.784051        -1.185734
 H         4.294299         0.110395        -1.689308
 H         2.000031        -1.580793        -2.458894
 H         3.593744        -2.091455        -1.398548
 H         1.574034        -2.496738         1.432135
 H         4.265643        -0.906885         0.747838
