19
Iteration:  3008charge 0 multiplicity 1
 C        -0.077589         0.076558         0.472555
 C         1.365897         0.048237        -0.076404
 C         2.193714         0.829657        -1.242894
 C         3.428148        -0.149029        -1.207662
 C         2.760324        -1.480200        -1.506149
 C         2.082723        -1.345406        -0.126304
 O         1.457777        -2.477685         0.650718
 C         3.243996        -0.406997         0.433477
 O         2.361757         0.489463         1.103251
 H        -0.171787        -0.698224         1.338207
 H        -0.362445         1.032735         0.778968
 H        -0.650319        -0.111477        -0.506401
 H         1.601242         0.680240        -2.157627
 H         2.500066         1.776247        -0.872957
 H         4.369736         0.204231        -1.587483
 H         2.189471        -1.635601        -2.410259
 H         3.554315        -2.274976        -1.448938
 H         1.602368        -3.449279         0.292351
 H         4.216517        -0.740721         0.896425
