19
Iteration:  2752
 C         0.002699         0.277810         0.350330
 C         1.349668        -0.006876        -0.031983
 C         1.964367         0.712536        -1.196435
 C         3.263055        -0.048883        -1.161515
 C         2.923566        -1.517330        -1.483411
 C         2.112896        -1.418611        -0.160819
 O         1.507623        -2.467183         0.610233
 C         3.278860        -0.427713         0.360987
 O         2.344605         0.383390         1.182061
 H        -0.282496        -0.192166         1.228505
 H         0.094888         1.399466         0.612661
 H        -0.585789         0.302955        -0.490230
 H         1.617230         0.532239        -2.189507
 H         2.273640         1.751698        -1.012594
 H         4.019338         0.383720        -1.709176
 H         2.443288        -1.651654        -2.486879
 H         3.690814        -2.226208        -1.286185
 H         2.167811        -3.132329         0.985634
 H         4.108129        -0.845047         0.889455
