19
Iteration:   413
 C        -0.043486         0.162883         0.446413
 C         1.385390         0.034390        -0.011699
 C         2.121839         0.724560        -1.165423
 C         3.413105        -0.093683        -1.160334
 C         2.711340        -1.475696        -1.581178
 C         2.131080        -1.380949        -0.156500
 O         1.608533        -2.491837         0.573204
 C         3.234473        -0.488396         0.413129
 O         2.289012         0.447014         1.097454
 H        -0.136580        -0.422059         1.373183
 H        -0.261597         1.206220         0.628131
 H        -0.744035        -0.148273        -0.333429
 H         1.505937         0.544086        -2.113268
 H         2.178091         1.839073        -1.062750
 H         4.227695         0.280897        -1.610783
 H         2.122787        -1.290662        -2.455732
 H         3.545864        -2.182241        -1.803706
 H         1.595142        -2.297678         1.526660
 H         4.095556        -0.778746         1.046095
