19
Iteration:  2300
 C         0.014739         0.286451         0.469192
 C         1.462559         0.061328         0.016958
 C         1.992755         0.805371        -1.199998
 C         3.295186        -0.124275        -1.166857
 C         2.734621        -1.531107        -1.516224
 C         2.140189        -1.418183        -0.117207
 O         1.587572        -2.532036         0.501989
 C         3.211554        -0.467868         0.366915
 O         2.428095         0.422507         1.102887
 H        -0.292225        -0.191170         1.436473
 H        -0.319651         1.290911         0.513819
 H        -0.614452        -0.192484        -0.363918
 H         1.418198         0.508563        -2.131896
 H         2.163031         1.843336        -1.036060
 H         4.129380         0.297792        -1.546858
 H         2.229244        -1.887756        -2.370589
 H         3.476662        -2.364175        -1.331419
 H         1.189666        -2.129433         1.341448
 H         4.091114        -0.930347         0.912873
