19
Iteration:   639charge 0 multiplicity 1
 C         0.059960         0.190461         0.426136
 C         1.370696        -0.082879         0.026470
 C         1.994267         0.762197        -1.243771
 C         3.304399        -0.055988        -1.144763
 C         2.779266        -1.461302        -1.458617
 C         2.187790        -1.428639        -0.030635
 O         1.472671        -2.439258         0.477444
 C         3.342682        -0.443983         0.460061
 O         2.318242         0.476848         1.025024
 H        -0.246495        -0.295744         1.346284
 H         0.045723         1.215528         0.593892
 H        -0.725669        -0.130666        -0.301476
 H         1.517992         0.360678        -2.064243
 H         2.073165         1.836387        -1.092006
 H         4.253467         0.340909        -1.522437
 H         2.073359        -1.672113        -2.232554
 H         3.588090        -2.202306        -1.457438
 H         1.977688        -3.224270         0.683034
 H         4.247493        -0.747320         0.926442
