19
Iteration:  1702
 C         0.068712         0.273066         0.618045
 C         1.451752         0.072635         0.098516
 C         1.986020         0.785710        -1.186965
 C         3.243649        -0.096514        -1.263955
 C         2.755293        -1.538356        -1.596834
 C         2.047969        -1.347481        -0.212512
 O         1.445654        -2.437689         0.549350
 C         3.309984        -0.524977         0.331066
 O         2.520163         0.320766         1.110782
 H        -0.127879        -0.279464         1.526228
 H        -0.191459         1.313402         0.644350
 H        -0.606920        -0.278644        -0.094771
 H         1.341179         0.510486        -2.072512
 H         2.113766         1.806993        -0.950088
 H         4.113567         0.326496        -1.615238
 H         2.209142        -1.747531        -2.528287
 H         3.598663        -2.153560        -1.518631
 H         1.465192        -2.178003         1.462744
 H         4.206680        -1.104931         0.472499
