19
Iteration:  1876charge 0 multiplicity 1
 C         0.032284         0.241243         0.554396
 C         1.447620         0.054260         0.049831
 C         1.976383         0.770942        -1.159949
 C         3.270222        -0.072856        -1.256848
 C         2.670041        -1.539172        -1.453778
 C         2.133235        -1.398357        -0.148204
 O         1.500229        -2.497452         0.488219
 C         3.370722        -0.493057         0.346734
 O         2.494991         0.389571         1.080972
 H        -0.040712        -0.130956         1.572378
 H        -0.259179         1.272025         0.528151
 H        -0.597768        -0.100378        -0.336919
 H         1.325161         0.617396        -2.104660
 H         2.046180         1.832971        -0.891314
 H         4.104526         0.221556        -1.923983
 H         2.070595        -1.400798        -2.369723
 H         3.394587        -2.348873        -1.550195
 H         0.867677        -2.284084         1.207929
 H         4.301719        -0.879329         0.912482
