19
Iteration:  4685charge 0 multiplicity 1
 C         0.052428         0.351591         0.339133
 C         1.424951         0.004936        -0.021713
 C         2.104487         0.842646        -1.181664
 C         3.330942        -0.064667        -1.127135
 C         2.739634        -1.622615        -1.547753
 C         2.130476        -1.365471        -0.105041
 O         1.522303        -2.422497         0.584042
 C         3.231201        -0.520621         0.449437
 O         2.314568         0.317323         1.149785
 H        -0.262406        -0.326497         1.104174
 H        -0.123967         1.309833         0.743364
 H        -0.755373         0.318459        -0.436309
 H         1.590843         0.837988        -2.205093
 H         2.258138         1.981906        -0.871560
 H         4.318468         0.183609        -1.512615
 H         2.181243        -1.738544        -2.386720
 H         3.568884        -2.363736        -1.668380
 H         1.519860        -3.263798         0.208048
 H         4.076819        -0.930906         0.968284
