19
Iteration:  1450charge 0 multiplicity 1
 C         0.034358         0.380709         0.484366
 C         1.416904        -0.021935        -0.001484
 C         2.032806         0.776595        -1.100342
 C         3.243312        -0.065954        -1.221906
 C         2.634264        -1.576250        -1.543385
 C         2.168079        -1.465346        -0.078692
 O         1.612475        -2.570301         0.506379
 C         3.277600        -0.505144         0.366346
 O         2.465682         0.456256         1.049851
 H        -0.058447        -0.177839         1.390980
 H        -0.015604         1.449798         0.645108
 H        -0.794323         0.251771        -0.279117
 H         1.414986         0.805563        -2.013571
 H         2.207064         1.755864        -0.751865
 H         4.115553         0.445749        -1.737767
 H         1.778792        -1.400305        -2.320920
 H         3.269581        -2.451797        -1.527012
 H         0.940632        -2.423450         1.244232
 H         4.148469        -0.877408         0.924852
