19
Iteration:  2319
 C        -0.053455         0.264516         0.500879
 C         1.333026         0.062681        -0.029726
 C         2.079377         0.758652        -1.184054
 C         3.335195        -0.100025        -1.195574
 C         2.791518        -1.513238        -1.476442
 C         2.121016        -1.409197        -0.134474
 O         1.535809        -2.501826         0.556638
 C         3.287279        -0.542625         0.411273
 O         2.359174         0.430866         1.001590
 H        -0.219611        -0.190191         1.411548
 H        -0.031341         1.319849         0.787971
 H        -0.852936         0.053959        -0.195726
 H         1.543100         0.675411        -2.094721
 H         2.376663         1.706362        -0.689482
 H         4.239019         0.250078        -1.792934
 H         2.081695        -1.503733        -2.361364
 H         3.506345        -2.316940        -1.703439
 H         1.915639        -2.716935         1.430344
 H         4.323381        -0.561056         0.906182
