19
Iteration:  4196
 C        -0.008909         0.279404         0.264494
 C         1.401617         0.044633         0.031256
 C         2.082812         0.699143        -1.148519
 C         3.374178        -0.119466        -1.047723
 C         2.813102        -1.504254        -1.450029
 C         2.033088        -1.415830        -0.172767
 O         1.539861        -2.505548         0.552511
 C         3.231878        -0.434510         0.417854
 O         2.296654         0.452005         1.064768
 H        -0.234603        -0.502300         1.034360
 H        -0.106176         1.316067         0.525490
 H        -0.637698         0.144792        -0.597174
 H         1.551338         0.724559        -2.226427
 H         2.326007         1.757799        -0.869237
 H         4.294175         0.474746        -1.399566
 H         2.303697        -1.620406        -2.526261
 H         3.550467        -2.302365        -1.274433
 H         2.229504        -3.032027         0.999636
 H         4.130430        -0.858416         1.062667
