19
Iteration:  1822charge 0 multiplicity 1
 C         0.053543         0.331033         0.593064
 C         1.403516         0.006194         0.001555
 C         2.016511         0.807866        -1.213150
 C         3.211794        -0.089125        -1.238309
 C         2.714907        -1.470934        -1.549703
 C         2.130750        -1.424271        -0.182886
 O         1.585177        -2.450322         0.650953
 C         3.277941        -0.570345         0.318162
 O         2.445303         0.365855         1.109263
 H        -0.032732        -0.360740         1.509457
 H         0.107756         1.418471         0.795277
 H        -0.886762         0.153574        -0.130005
 H         1.470495         0.520237        -2.212066
 H         2.301892         1.833893        -0.887524
 H         4.221647         0.228904        -1.564036
 H         1.976299        -1.542128        -2.354858
 H         3.388036        -2.309656        -1.486281
 H         0.907390        -2.883936         0.052514
 H         4.289925        -0.957396         0.713744
