19
Iteration:  2537
 C        -0.048813         0.132020         0.479893
 C         1.387654         0.069440        -0.063243
 C         2.044636         0.828057        -1.180924
 C         3.397784        -0.104917        -1.202280
 C         2.854187        -1.588350        -1.471251
 C         2.176046        -1.401658        -0.108314
 O         1.563691        -2.406255         0.633850
 C         3.167000        -0.469527         0.331833
 O         2.351392         0.436989         1.051700
 H        -0.248605        -0.671922         1.125150
 H        -0.352891         1.094731         0.913000
 H        -0.715321         0.068812        -0.417366
 H         1.527168         0.840361        -2.121684
 H         2.361898         1.782599        -0.777817
 H         4.370518         0.105429        -1.442219
 H         2.246565        -1.936993        -2.320897
 H         3.605877        -2.313501        -1.351766
 H         0.595673        -2.491768         0.524859
 H         4.164646        -0.711450         0.811210
