19
Iteration:  1087charge 0 multiplicity 1
 C        -0.040711         0.216465         0.515044
 C         1.391353         0.050166         0.052293
 C         2.133489         0.797998        -1.253976
 C         3.304359        -0.101465        -1.163534
 C         2.766005        -1.539964        -1.512120
 C         2.162690        -1.438818        -0.119036
 O         1.562666        -2.484903         0.555844
 C         3.256153        -0.440409         0.337509
 O         2.343773         0.408808         1.051768
 H        -0.108761        -0.468714         1.495051
 H        -0.444842         1.153925         1.031298
 H        -0.720958        -0.235157        -0.210497
 H         1.659121         0.655767        -2.236441
 H         2.357018         1.853664        -0.984488
 H         4.230851         0.281791        -1.561761
 H         2.150612        -1.622098        -2.447055
 H         3.451812        -2.251760        -1.777569
 H         0.908917        -2.126090         1.243009
 H         4.270421        -0.719582         0.788365
