19
Iteration:   632
 C        -0.038933         0.187985         0.446522
 C         1.397708        -0.046130         0.025347
 C         2.065790         0.733006        -1.227921
 C         3.303537        -0.060360        -1.149336
 C         2.786837        -1.454803        -1.484523
 C         2.170178        -1.381072        -0.032204
 O         1.508484        -2.460912         0.492427
 C         3.278640        -0.456149         0.452781
 O         2.324816         0.478593         1.024050
 H        -0.099309        -0.391037         1.467199
 H        -0.108554         1.306818         0.774163
 H        -0.832150        -0.244008        -0.293425
 H         1.637029         0.320531        -2.316362
 H         2.223959         1.837043        -1.223416
 H         4.234511         0.242664        -1.517739
 H         2.074308        -1.431583        -2.345877
 H         3.555506        -2.346264        -1.545389
 H         2.025491        -3.153221         0.814286
 H         4.318510        -0.851596         0.893899
