19
Iteration:  2900
 C        -0.087662         0.291664         0.447871
 C         1.376008         0.116504         0.069911
 C         2.140482         0.756615        -1.256117
 C         3.387235        -0.119016        -1.128067
 C         2.751629        -1.535569        -1.512155
 C         2.062580        -1.431664        -0.094299
 O         1.645113        -2.615170         0.491226
 C         3.283748        -0.456044         0.400522
 O         2.302940         0.451851         1.032428
 H        -0.131981        -0.177567         1.473067
 H        -0.395847         1.255024         0.693966
 H        -0.804669        -0.222271        -0.173063
 H         1.598329         0.804606        -2.183567
 H         2.246470         1.807008        -1.074349
 H         4.309197         0.284487        -1.519479
 H         2.128093        -1.665574        -2.342230
 H         3.576004        -2.273406        -1.308972
 H         1.090024        -2.440581         1.292452
 H         4.184852        -0.401043         0.962962
