19
Iteration:  2914charge 0 multiplicity 1
 C        -0.034614         0.289137         0.483672
 C         1.342149         0.082018        -0.099517
 C         2.087127         0.798346        -1.170886
 C         3.327643        -0.144529        -1.178329
 C         2.805265        -1.538056        -1.410624
 C         2.091399        -1.386144        -0.116240
 O         1.668493        -2.601185         0.481833
 C         3.168128        -0.457500         0.408740
 O         2.325628         0.457869         1.054311
 H        -0.143865        -0.221296         1.461772
 H        -0.305512         1.432297         0.577671
 H        -0.692963        -0.044580        -0.289145
 H         1.624068         0.713170        -2.140691
 H         2.474598         1.771300        -0.779351
 H         4.256591         0.112035        -1.678809
 H         2.286117        -1.648823        -2.401887
 H         3.525402        -2.413160        -1.342340
 H         1.638132        -2.351238         1.410300
 H         3.919061        -0.944178         0.934275
