19
Iteration:   774charge 0 multiplicity 1
 C        -0.038485         0.223673         0.388320
 C         1.349099         0.079699         0.014654
 C         2.005175         0.733340        -1.247767
 C         3.329278        -0.055799        -1.168949
 C         2.846343        -1.474959        -1.520417
 C         2.172085        -1.371971        -0.119769
 O         1.480797        -2.423293         0.613829
 C         3.279078        -0.546042         0.411891
 O         2.377350         0.354630         1.084963
 H        -0.271307        -0.409096         1.282871
 H        -0.155269         1.207183         0.766234
 H        -0.641576        -0.336290        -0.417146
 H         1.364480         0.555317        -2.100501
 H         2.114107         1.779716        -1.052222
 H         4.172128         0.395154        -1.686300
 H         2.176847        -1.520869        -2.329946
 H         3.757045        -2.129234        -1.498600
 H         2.095334        -2.944234         1.116577
 H         4.275572        -0.717783         0.981973
