19
Iteration:  4558
 C        -0.036827         0.056591         0.343971
 C         1.460870         0.133250        -0.041048
 C         2.235147         0.839805        -1.190495
 C         3.391948        -0.120531        -1.136815
 C         2.748483        -1.523788        -1.528049
 C         2.052791        -1.380512        -0.113427
 O         1.378940        -2.374596         0.596207
 C         3.205958        -0.492709         0.375369
 O         2.410545         0.395956         1.144807
 H        -0.251730        -0.565951         1.201972
 H        -0.577720         1.005103         0.591705
 H        -0.585724        -0.397266        -0.544914
 H         1.552747         0.759067        -1.998935
 H         2.288490         1.826432        -0.967369
 H         4.388637         0.155622        -1.391959
 H         2.123955        -1.365868        -2.443654
 H         3.546783        -2.189292        -1.388683
 H         2.035476        -3.111323         0.805113
 H         4.076487        -0.761970         1.106879
