19
Iteration:  2931
 C        -0.045585         0.331369         0.365532
 C         1.402930         0.020426         0.020430
 C         2.024286         0.794679        -1.237594
 C         3.306311        -0.082600        -1.130536
 C         2.807846        -1.547478        -1.515799
 C         2.109811        -1.425068        -0.146783
 O         1.612930        -2.480970         0.543134
 C         3.214831        -0.568463         0.443733
 O         2.348646         0.424153         1.088409
 H        -0.251159        -0.283787         1.257615
 H         0.005185         1.336676         0.560376
 H        -0.932977         0.060348        -0.270388
 H         1.490392         0.765772        -2.227420
 H         2.078548         1.804471        -0.883209
 H         4.205429         0.428487        -1.465407
 H         2.273633        -1.935276        -2.386136
 H         3.642053        -2.262690        -1.423735
 H         2.000085        -2.646829         1.433612
 H         4.189837        -0.799888         1.046292
