19
Iteration:   502
 C         0.004693         0.227988         0.499402
 C         1.381662         0.074663        -0.039344
 C         2.036779         0.774596        -1.254605
 C         3.314566        -0.112149        -1.180505
 C         2.854259        -1.538047        -1.526055
 C         2.096759        -1.440171        -0.143588
 O         1.602189        -2.486657         0.534557
 C         3.234188        -0.451203         0.466606
 O         2.290233         0.391805         1.057378
 H        -0.215609        -0.365214         1.419446
 H        -0.080382         1.307341         0.778653
 H        -0.720162        -0.147256        -0.163916
 H         1.419068         0.787570        -2.206647
 H         2.245198         1.822319        -0.737349
 H         4.186872         0.251797        -1.659240
 H         2.353686        -1.566404        -2.495477
 H         3.742785        -2.202871        -1.471105
 H         1.412451        -2.304338         1.473100
 H         4.233710        -0.664595         1.059647
