19
Iteration:   941
 C        -0.015316         0.208257         0.399077
 C         1.426953        -0.042045        -0.025562
 C         2.030539         0.756478        -1.214390
 C         3.321147         0.050733        -1.161307
 C         2.744343        -1.508430        -1.435919
 C         2.169348        -1.424743        -0.055018
 O         1.440433        -2.526013         0.508282
 C         3.369177        -0.424749         0.411863
 O         2.403531         0.392434         1.063553
 H        -0.424542        -0.225706         1.324680
 H        -0.211443         1.339430         0.542782
 H        -0.670955        -0.263419        -0.505827
 H         1.355336         0.473420        -1.994313
 H         1.970510         1.810289        -1.037427
 H         4.163903         0.351034        -1.855986
 H         2.175323        -1.863654        -2.394429
 H         3.605777        -2.099621        -1.274425
 H         1.695322        -2.403061         1.417236
 H         4.218518        -0.536814         0.939993
