19
Iteration:  1782charge 0 multiplicity 1
 C        -0.002180         0.281362         0.423348
 C         1.441313         0.052102         0.103452
 C         2.009164         0.811571        -1.177917
 C         3.240049        -0.124570        -1.222415
 C         2.612990        -1.494402        -1.530896
 C         2.076158        -1.408609        -0.098090
 O         1.583851        -2.439472         0.630247
 C         3.270902        -0.591183         0.276101
 O         2.548397         0.389058         1.146759
 H        -0.364905        -0.349650         1.236341
 H        -0.055755         1.298783         0.903414
 H        -0.549707         0.459281        -0.435136
 H         1.275879         0.742491        -1.959386
 H         2.169159         1.921528        -0.934490
 H         4.074561         0.251945        -1.909440
 H         2.028876        -1.462094        -2.496596
 H         3.533590        -2.144873        -1.621895
 H         1.702900        -3.307840         0.294577
 H         4.227281        -1.084535         0.557932
