19
Iteration:  4956
 C         0.061160         0.474546         0.429536
 C         1.385428         0.049084         0.060130
 C         2.077468         0.816788        -1.125154
 C         3.357795        -0.089735        -1.131041
 C         2.706608        -1.450642        -1.592708
 C         2.041581        -1.444847        -0.137552
 O         1.503860        -2.561354         0.494802
 C         3.300202        -0.596067         0.406494
 O         2.372090         0.297024         1.094483
 H        -0.086616         0.404205         1.511593
 H        -0.262333         1.518708         0.300060
 H        -0.741947        -0.164381        -0.153686
 H         1.565809         0.758459        -2.175531
 H         2.228045         1.897242        -0.902989
 H         4.360130         0.285078        -1.485516
 H         2.176099        -1.427195        -2.536140
 H         3.290833        -2.323760        -1.739671
 H         2.134639        -3.094595         1.062091
 H         4.087019        -0.907885         1.112795
