19
Iteration:  4243charge 0 multiplicity 1
 C         0.033191         0.078270         0.233133
 C         1.472342         0.030229         0.004031
 C         2.059878         0.784564        -1.089182
 C         3.390455        -0.106286        -1.156627
 C         2.828754        -1.526532        -1.474369
 C         2.132486        -1.327425        -0.114657
 O         1.356876        -2.305065         0.579986
 C         3.281384        -0.450442         0.418184
 O         2.305638         0.355057         1.148158
 H        -0.133328        -0.211080         1.244541
 H        -0.395841         1.036246        -0.167260
 H        -0.543500        -0.712748        -0.380421
 H         1.648588         0.653600        -2.142755
 H         2.167117         1.882779        -0.858425
 H         4.305357         0.144825        -1.638554
 H         2.117203        -1.450835        -2.358251
 H         3.666167        -2.300521        -1.669284
 H         1.875390        -3.009481         0.915223
 H         4.236005        -0.778475         0.906862
