19
Iteration:  1706charge 0 multiplicity 1
 C         0.077460         0.244917         0.603307
 C         1.460120         0.089035         0.106552
 C         1.956943         0.789161        -1.195029
 C         3.231021        -0.096505        -1.251654
 C         2.769430        -1.506142        -1.559124
 C         2.047835        -1.353948        -0.211229
 O         1.433215        -2.426567         0.550472
 C         3.311260        -0.554765         0.275280
 O         2.506373         0.317913         1.103117
 H        -0.000583        -0.310644         1.575092
 H        -0.240790         1.317667         0.620576
 H        -0.658597        -0.126080        -0.068523
 H         1.440327         0.465022        -2.044661
 H         2.195490         1.873619        -0.947475
 H         4.270260         0.233053        -1.645820
 H         2.067931        -1.695544        -2.458666
 H         3.796497        -2.090677        -1.440085
 H         1.568559        -2.236552         1.531149
 H         4.210129        -1.198956         0.538056
