19
Iteration:  3748charge 0 multiplicity 1
 C        -0.095238         0.246610         0.313334
 C         1.346509        -0.085854         0.046919
 C         2.041385         0.739396        -1.243079
 C         3.378467        -0.067538        -1.163201
 C         2.946605        -1.528850        -1.440066
 C         2.164309        -1.377383        -0.109528
 O         1.418180        -2.412232         0.574745
 C         3.289418        -0.420719         0.435884
 O         2.309452         0.425919         1.144811
 H        -0.364521        -0.546483         1.143479
 H        -0.279536         1.197310         0.800681
 H        -0.585091         0.258455        -0.648418
 H         1.558862         0.645540        -2.225811
 H         2.295749         1.753760        -1.105442
 H         4.427363         0.179039        -1.657272
 H         2.576505        -1.581986        -2.569223
 H         3.645194        -2.321948        -1.285828
 H         1.896220        -3.199502         0.541817
 H         4.252529        -0.831055         0.758656
