19
Iteration:  2768charge 0 multiplicity 1
 C        -0.047245         0.377461         0.312310
 C         1.416201        -0.003437         0.066467
 C         1.972560         0.739195        -1.172651
 C         3.310657        -0.054103        -1.193650
 C         2.865960        -1.551301        -1.465656
 C         2.116827        -1.410769        -0.078591
 O         1.559744        -2.475571         0.540960
 C         3.224806        -0.473946         0.372109
 O         2.364368         0.355158         1.105583
 H        -0.569440        -0.351348         1.029817
 H        -0.160107         1.401478         0.571969
 H        -0.710094         0.199799        -0.670291
 H         1.176328         0.584906        -1.988962
 H         1.965579         1.758945        -0.768787
 H         4.327328         0.453942        -1.464853
 H         2.430022        -1.990106        -2.361501
 H         3.774212        -2.260894        -1.350322
 H         2.301550        -2.810107         1.132659
 H         4.291599        -0.704259         0.781000
