19
Iteration:  4355
 C        -0.059501         0.348173         0.319340
 C         1.371253         0.062296        -0.001538
 C         2.109745         0.723376        -1.270961
 C         3.410055        -0.126450        -1.162271
 C         2.825485        -1.462075        -1.426754
 C         2.084431        -1.350864        -0.123895
 O         1.542420        -2.521758         0.547548
 C         3.209428        -0.486888         0.450902
 O         2.273306         0.357952         1.130275
 H        -0.384743        -0.646411         0.810836
 H        -0.178960         1.086948         1.164222
 H        -0.670630         0.619025        -0.555370
 H         1.515860         0.616397        -2.175388
 H         2.205846         1.788457        -0.952820
 H         4.419826         0.180285        -1.481724
 H         2.548371        -1.683374        -2.436202
 H         3.636272        -2.318252        -1.224624
 H         2.320872        -2.800044         1.071530
 H         4.048812        -0.878424         0.855273
