19
Iteration:  1831
 C         0.102177         0.303606         0.600063
 C         1.385212         0.061383         0.023955
 C         2.036967         0.776766        -1.244423
 C         3.306306        -0.093432        -1.195934
 C         2.676995        -1.501785        -1.594534
 C         2.044210        -1.362080        -0.109490
 O         1.611726        -2.506919         0.598782
 C         3.211950        -0.549549         0.369696
 O         2.481669         0.369099         1.038577
 H         0.167213        -0.291421         1.501999
 H        -0.066908         1.292950         0.924312
 H        -0.728450         0.025825        -0.128486
 H         1.365045         0.815073        -2.153749
 H         2.143508         1.793502        -0.951950
 H         4.128385         0.477231        -1.531873
 H         1.932767        -1.791074        -2.324905
 H         3.470349        -2.286719        -1.494929
 H         0.746287        -2.789751         0.187309
 H         4.125033        -0.827671         0.921582
