19
Iteration:  2071charge 0 multiplicity 1
 C        -0.055186         0.282379         0.327916
 C         1.462389         0.105930         0.063757
 C         1.984505         0.795587        -1.137751
 C         3.258908        -0.058618        -1.193438
 C         2.664197        -1.544099        -1.487753
 C         2.047086        -1.352099        -0.077243
 O         1.599185        -2.515250         0.556887
 C         3.346922        -0.534219         0.292307
 O         2.566626         0.347726         1.169688
 H        -0.423120        -0.100388         1.249672
 H        -0.628409         1.238129         0.332756
 H        -0.535119        -0.337823        -0.540727
 H         1.596958         0.656833        -2.146644
 H         1.904594         1.857230        -1.130013
 H         4.169377         0.270023        -1.780425
 H         1.904376        -1.809070        -2.273830
 H         3.497566        -2.319326        -1.617719
 H         1.014643        -2.330127         1.336133
 H         4.288220        -0.950432         0.837250
