19
Iteration:  1767charge 0 multiplicity 1
 C         0.025772         0.285855         0.485091
 C         1.452148         0.083340         0.051672
 C         2.024756         0.825143        -1.149448
 C         3.257217        -0.092061        -1.237787
 C         2.551373        -1.488290        -1.532064
 C         2.082325        -1.354469        -0.100547
 O         1.517300        -2.517364         0.619541
 C         3.346272        -0.527132         0.354750
 O         2.540250         0.356232         1.042934
 H        -0.343251        -0.607763         1.061522
 H        -0.143965         1.233135         1.019425
 H        -0.636724         0.150957        -0.467845
 H         1.541469         0.805336        -2.198967
 H         2.235409         1.860352        -0.899609
 H         4.186390         0.110623        -1.679740
 H         1.715435        -1.687647        -2.167857
 H         3.174817        -2.299943        -1.653692
 H         2.212528        -3.131472         0.249515
 H         4.195561        -0.807124         1.021740
