19
Iteration:   619
 C        -0.080229         0.169678         0.503287
 C         1.369107         0.116366        -0.018539
 C         2.075190         0.718893        -1.259172
 C         3.422686        -0.122114        -1.128240
 C         2.789117        -1.487369        -1.509752
 C         2.106102        -1.402485        -0.154057
 O         1.527200        -2.487054         0.549531
 C         3.235355        -0.447666         0.416175
 O         2.368242         0.464764         1.074211
 H        -0.236998        -0.493174         1.431710
 H        -0.435554         1.188018         0.706561
 H        -0.833429        -0.242584        -0.305346
 H         1.469867         0.625317        -2.239135
 H         2.203335         1.774516        -0.911687
 H         4.261360         0.311821        -1.579867
 H         2.150138        -1.529635        -2.373142
 H         3.565400        -2.345223        -1.593455
 H         2.350802        -2.969828         0.918268
 H         4.101228        -0.667386         1.107164
