19
Iteration:  3688charge 0 multiplicity 1
 C        -0.151129         0.292273         0.288784
 C         1.364168         0.049184         0.008206
 C         2.146650         0.695000        -1.153948
 C         3.387715        -0.075737        -1.154938
 C         2.805657        -1.518687        -1.511074
 C         2.158203        -1.389026        -0.088533
 O         1.589075        -2.515304         0.515826
 C         3.231907        -0.473404         0.476335
 O         2.306654         0.463009         1.095992
 H        -0.470161        -0.460156         0.973600
 H        -0.492457         1.334685         0.629105
 H        -0.775447        -0.174989        -0.524038
 H         1.664895         0.677684        -2.155832
 H         2.322707         1.816709        -0.991293
 H         4.356799         0.037445        -1.532478
 H         2.173915        -1.626723        -2.342027
 H         3.516597        -2.396643        -1.414536
 H         1.876679        -2.724516         1.433280
 H         4.110129        -0.764090         1.094273
