19
Iteration:  2674
 C        -0.061319         0.115862         0.284704
 C         1.401735         0.005764         0.042915
 C         2.011067         0.759501        -1.170475
 C         3.287074        -0.079640        -1.134998
 C         2.846508        -1.574357        -1.455798
 C         2.162056        -1.406331        -0.079610
 O         1.410001        -2.305714         0.567839
 C         3.338146        -0.418361         0.389085
 O         2.439014         0.433985         1.111043
 H        -0.258290        -0.468276         1.217783
 H        -0.401460         1.186288         0.302401
 H        -0.605201        -0.486209        -0.377979
 H         1.321481         0.564953        -1.997914
 H         2.081591         1.860845        -0.926072
 H         4.305195         0.049191        -1.634491
 H         2.230331        -1.769680        -2.367212
 H         3.692459        -2.283174        -1.604852
 H         1.889158        -3.156868         0.513449
 H         4.268270        -0.532747         0.849437
