19
Iteration:   830
 C        -0.076462         0.164385         0.398989
 C         1.336035         0.106001         0.016463
 C         2.018178         0.780374        -1.285344
 C         3.338303        -0.059297        -1.102588
 C         2.782642        -1.543017        -1.434460
 C         2.132320        -1.357463        -0.131017
 O         1.523716        -2.495335         0.578252
 C         3.235636        -0.480145         0.400500
 O         2.491980         0.462346         1.135215
 H        -0.265107        -0.518818         1.248009
 H        -0.313586         1.218151         0.595166
 H        -0.680086         0.064558        -0.598590
 H         1.403163         0.370413        -2.084206
 H         2.029413         1.832345        -1.314984
 H         4.292670         0.341991        -1.634400
 H         2.288313        -1.905325        -2.336888
 H         3.643715        -2.223301        -1.386593
 H         1.922669        -3.365009         0.208905
 H         4.161615        -0.774251         0.887384
