19
Iteration:  4204charge 0 multiplicity 1
 C        -0.054510         0.247997         0.239053
 C         1.385689         0.062374        -0.024487
 C         2.097227         0.746952        -1.151643
 C         3.398114        -0.102184        -1.096023
 C         2.864857        -1.490691        -1.467162
 C         2.061536        -1.396489        -0.082697
 O         1.482698        -2.514051         0.567342
 C         3.248673        -0.469755         0.395087
 O         2.344522         0.428236         1.122367
 H        -0.406235        -0.439192         1.089515
 H        -0.228908         1.307453         0.439757
 H        -0.613300        -0.062227        -0.605331
 H         1.408495         0.682289        -1.974529
 H         2.231477         1.807281        -0.973801
 H         4.171964         0.372183        -1.751005
 H         2.344693        -1.462701        -2.395260
 H         3.522551        -2.316730        -1.308053
 H         2.261554        -2.931020         1.034918
 H         3.982753        -0.927514         1.005468
