19
Iteration:  3834charge 0 multiplicity 1
 C        -0.053921         0.233899         0.268415
 C         1.359171         0.005038         0.014380
 C         2.042471         0.737980        -1.182556
 C         3.338631        -0.059514        -1.139177
 C         2.941410        -1.539418        -1.488430
 C         2.194542        -1.404859        -0.174196
 O         1.454624        -2.384446         0.560990
 C         3.154076        -0.520876         0.517078
 O         2.361843         0.419362         1.143380
 H        -0.392807        -0.060124         1.374989
 H        -0.178015         1.323866         0.172739
 H        -0.730540        -0.391112        -0.333566
 H         1.524944         0.546848        -2.110514
 H         2.402651         1.727098        -0.967906
 H         4.234005         0.514976        -1.674342
 H         2.260454        -1.712148        -2.346003
 H         3.806579        -2.165920        -1.533704
 H         2.082919        -2.995469         0.947896
 H         4.135897        -0.935401         0.759033
