19
Iteration:  3121
 C        -0.120572         0.301361         0.317936
 C         1.411467         0.078148         0.028168
 C         2.092245         0.790257        -1.220949
 C         3.359611        -0.095148        -1.127285
 C         2.781767        -1.541210        -1.502371
 C         2.141685        -1.448678        -0.146226
 O         1.616409        -2.529206         0.564542
 C         3.263447        -0.466084         0.502855
 O         2.297166         0.388232         1.085544
 H        -0.561451        -0.456596         1.067979
 H        -0.338502         1.407186         0.665953
 H        -0.789404         0.093108        -0.525302
 H         1.423066         0.579686        -2.133170
 H         2.275326         1.949899        -1.008655
 H         4.345347         0.301962        -1.493926
 H         2.142801        -1.600483        -2.427938
 H         3.553535        -2.327239        -1.808429
 H         1.946891        -2.448748         1.457186
 H         4.163899        -0.836980         0.920307
