19
Iteration:  4852charge 0 multiplicity 1
 C         0.009578         0.348191         0.423271
 C         1.405620         0.107710         0.005414
 C         2.129859         0.799873        -1.208368
 C         3.361839        -0.109327        -1.110695
 C         2.727735        -1.500930        -1.558703
 C         2.008194        -1.381674        -0.128497
 O         1.552763        -2.530734         0.589895
 C         3.217114        -0.568830         0.387527
 O         2.406962         0.372986         1.146271
 H        -0.454916        -0.580421         0.763786
 H        -0.076243         1.118130         1.193710
 H        -0.598989         0.704288        -0.379396
 H         1.478714         0.876578        -2.180387
 H         2.567032         1.773373        -0.763099
 H         4.196553         0.222105        -1.682739
 H         2.136248        -1.655217        -2.489598
 H         3.518907        -2.281029        -1.457823
 H         1.291060        -3.253946         0.016002
 H         4.201275        -0.905784         0.829767
