19
Iteration:  1374
 C         0.022125         0.164291         0.552333
 C         1.418749         0.046311        -0.020430
 C         2.096476         0.792738        -1.166177
 C         3.365868        -0.094975        -1.233484
 C         2.677036        -1.516499        -1.534337
 C         2.084549        -1.408874        -0.140374
 O         1.424768        -2.399931         0.664955
 C         3.344893        -0.509298         0.359945
 O         2.413964         0.432109         1.021813
 H        -0.060364        -0.670959         1.246885
 H        -0.002807         1.224850         0.828722
 H        -0.893240         0.083334        -0.177693
 H         1.530779         0.801113        -2.120068
 H         2.433037         1.716084        -0.774328
 H         4.225341         0.408266        -1.790226
 H         1.762456        -1.614266        -2.234482
 H         3.326493        -2.344372        -1.792382
 H         1.801137        -3.240771         0.454545
 H         4.272853        -0.722719         0.903677
