19
Iteration:  4454
 C         0.010834         0.370573         0.399745
 C         1.405125         0.006426         0.004544
 C         2.094214         0.803204        -1.241851
 C         3.399018        -0.081000        -1.131248
 C         2.842674        -1.447345        -1.505149
 C         2.090546        -1.465704        -0.139093
 O         1.574810        -2.609728         0.642734
 C         3.193187        -0.501508         0.412195
 O         2.272505         0.430793         1.090461
 H        -0.147761        -0.106645         1.410197
 H        -0.186797         1.421666         0.211366
 H        -0.683208        -0.063259        -0.298341
 H         1.640558         0.598999        -2.225401
 H         2.245342         1.896874        -0.937746
 H         4.438203         0.230634        -1.474947
 H         2.316423        -1.708244        -2.397845
 H         3.651686        -2.294368        -1.492620
 H         0.759639        -2.774162         0.174224
 H         3.916719        -0.723602         1.057243
