19
Iteration:  4191charge 0 multiplicity 1
 C         0.004272         0.298602         0.292236
 C         1.417943         0.012826         0.033553
 C         2.067800         0.705483        -1.180690
 C         3.357855        -0.105903        -1.049891
 C         2.786239        -1.527768        -1.460324
 C         2.046851        -1.402992        -0.197616
 O         1.568916        -2.493972         0.536541
 C         3.214889        -0.458738         0.475766
 O         2.271526         0.462776         1.036199
 H        -0.329505        -0.375553         1.106930
 H        -0.140775         1.306123         0.786478
 H        -0.604451         0.250842        -0.644540
 H         1.818355         0.626516        -2.180587
 H         2.315940         1.686896        -0.807290
 H         4.355758         0.312571        -1.182595
 H         2.372069        -1.767102        -2.374144
 H         3.593022        -2.273789        -1.406200
 H         2.248749        -3.047270         0.928543
 H         4.095967        -0.642501         0.989379
