19
Iteration:  4098charge 0 multiplicity 1
 C        -0.015980         0.052496         0.275855
 C         1.447066         0.091833         0.010775
 C         2.160301         0.825944        -1.254862
 C         3.390215        -0.104401        -1.064222
 C         2.775822        -1.535845        -1.461420
 C         2.129837        -1.388889        -0.137668
 O         1.453109        -2.420118         0.621912
 C         3.264549        -0.473602         0.416772
 O         2.267821         0.493647         1.132230
 H        -0.132207        -0.587583         1.112666
 H        -0.223527         1.041551         0.533752
 H        -0.544075        -0.095167        -0.607486
 H         1.522994         0.704759        -2.159388
 H         2.400114         1.809816        -0.909078
 H         4.370330         0.016891        -1.588220
 H         2.090360        -1.587169        -2.345433
 H         3.368897        -2.363449        -1.611970
 H         1.649713        -3.346885         0.225003
 H         4.069553        -0.535199         1.209576
