19
Iteration:   401
 C        -0.044529         0.199678         0.432315
 C         1.389423         0.016463         0.033929
 C         1.994282         0.695357        -1.261506
 C         3.377736        -0.077292        -1.115353
 C         2.848404        -1.422378        -1.623548
 C         2.122394        -1.400859        -0.154313
 O         1.557691        -2.407634         0.575172
 C         3.245089        -0.525780         0.441263
 O         2.351296         0.421438         1.117120
 H        -0.297685        -0.424171         1.288213
 H        -0.267359         1.191008         0.706170
 H        -0.702750        -0.246034        -0.377781
 H         1.519151         0.562500        -2.290476
 H         2.160365         1.740538        -0.976751
 H         4.263206         0.349843        -1.462598
 H         1.995918        -1.585152        -2.249937
 H         3.410783        -2.406440        -1.814146
 H         2.135725        -2.373296         1.336731
 H         3.979452        -1.013561         1.068375
