19
Iteration:  4474charge 0 multiplicity 1
 C        -0.069397         0.447477         0.450549
 C         1.365582         0.069546        -0.140035
 C         2.103660         0.724697        -1.222358
 C         3.311284        -0.096425        -1.051526
 C         2.838238        -1.544480        -1.408491
 C         2.074089        -1.443055        -0.122458
 O         1.677268        -2.481687         0.508361
 C         3.245232        -0.517907         0.491567
 O         2.291755         0.347559         1.045848
 H         0.075221         0.272028         1.520347
 H        -0.337129         1.501128         0.193036
 H        -0.879022        -0.088350         0.068021
 H         1.655816         0.543812        -2.251913
 H         2.141167         1.843357        -0.855400
 H         4.271026         0.290196        -1.418710
 H         2.305046        -1.624299        -2.319906
 H         3.565470        -2.397627        -1.533061
 H         1.185257        -3.116413         0.021436
 H         4.024928        -0.923403         1.082758
