19
Iteration:   682charge 0 multiplicity 1
 C        -0.154633         0.173594         0.435636
 C         1.426760         0.088490         0.054321
 C         1.986761         0.760720        -1.232832
 C         3.365362        -0.027805        -1.162235
 C         2.829144        -1.545216        -1.452464
 C         2.119329        -1.352845        -0.156388
 O         1.567693        -2.385039         0.588020
 C         3.263946        -0.549395         0.397145
 O         2.395730         0.409043         1.069381
 H        -0.578010        -0.389337         1.235588
 H        -0.237913         1.171622         0.703651
 H        -0.710881        -0.166407        -0.426015
 H         1.549496         0.438651        -2.109677
 H         2.133260         1.808042        -0.959897
 H         4.350703         0.179653        -1.633326
 H         2.348669        -1.811846        -2.394816
 H         3.670406        -2.158366        -1.264964
 H         1.879471        -3.232465         0.173535
 H         4.073024        -0.949244         0.903757
