19
Iteration:  1262charge 0 multiplicity 1
 C        -0.028186         0.268478         0.512605
 C         1.383766         0.112210         0.059045
 C         1.992906         0.822814        -1.166305
 C         3.350959        -0.101862        -1.168473
 C         2.742214        -1.564114        -1.524944
 C         2.067830        -1.404666        -0.097869
 O         1.568850        -2.499527         0.621458
 C         3.275682        -0.535386         0.289961
 O         2.505118         0.420419         1.023497
 H        -0.113762        -0.374403         1.435281
 H        -0.315349         1.322206         0.705745
 H        -0.783042        -0.122127        -0.193537
 H         1.541533         0.654409        -2.122457
 H         2.166670         1.868606        -1.087594
 H         4.282261         0.282642        -1.672282
 H         2.023407        -1.546510        -2.363450
 H         3.395960        -2.345336        -1.413695
 H         1.053793        -2.923482        -0.062541
 H         4.085662        -0.883969         0.951613
