19
Iteration:   940
 C        -0.013843         0.211823         0.394208
 C         1.423506        -0.036726        -0.021264
 C         2.034622         0.753374        -1.209399
 C         3.309559         0.047328        -1.166830
 C         2.752769        -1.509796        -1.436224
 C         2.172267        -1.426799        -0.052383
 O         1.437657        -2.523882         0.510135
 C         3.364565        -0.425664         0.408004
 O         2.404665         0.393234         1.065589
 H        -0.404438        -0.238498         1.305350
 H        -0.210266         1.316154         0.547483
 H        -0.685458        -0.280761        -0.504642
 H         1.372609         0.494428        -2.007496
 H         1.944468         1.784494        -1.058694
 H         4.183076         0.337691        -1.854123
 H         2.155579        -1.776356        -2.365736
 H         3.626256        -2.094413        -1.256647
 H         1.723600        -2.431744         1.396746
 H         4.231134        -0.552269         0.929675
