19
Iteration:  3104
 C         0.012720         0.319538         0.323328
 C         1.330546        -0.005469        -0.078299
 C         2.101913         0.747263        -1.220206
 C         3.366390        -0.101108        -1.115162
 C         2.758036        -1.407874        -1.489750
 C         2.095989        -1.367075        -0.084281
 O         1.701847        -2.589823         0.569437
 C         3.213973        -0.522766         0.379628
 O         2.258669         0.403192         1.127079
 H        -0.238364        -0.164297         1.199929
 H        -0.021277         1.335379         0.564659
 H        -0.735440         0.145635        -0.496322
 H         1.666727         0.471801        -2.151572
 H         2.264687         1.650152        -0.737165
 H         4.229490         0.282746        -1.589284
 H         2.089135        -1.534565        -2.399830
 H         3.371144        -2.239882        -1.422820
 H         1.350942        -2.384352         1.492694
 H         4.036134        -0.698750         1.147649
