19
Iteration:   294charge 0 multiplicity 1
 C        -0.088108         0.266261         0.428163
 C         1.369306         0.029243        -0.044821
 C         1.984430         0.785176        -1.117819
 C         3.344857        -0.020891        -1.201143
 C         2.861654        -1.622429        -1.561722
 C         2.196970        -1.422909        -0.136302
 O         1.687611        -2.404093         0.634994
 C         3.288437        -0.513125         0.394580
 O         2.265702         0.340738         1.086097
 H        -0.255315        -0.350425         1.347204
 H        -0.459101         1.298517         0.557218
 H        -0.769143        -0.036416        -0.377273
 H         1.490750         0.890413        -2.143713
 H         2.267164         1.844480        -0.743308
 H         4.070920         0.464959        -1.652373
 H         2.306249        -1.809250        -2.455139
 H         3.672071        -2.342668        -1.387836
 H         0.762671        -2.248652         0.484075
 H         4.112047        -0.883240         1.044723
