19
Iteration:  1899
 C         0.045971         0.235820         0.472171
 C         1.476638         0.043945         0.079366
 C         2.002092         0.737108        -1.147850
 C         3.226702        -0.025920        -1.237944
 C         2.674867        -1.523789        -1.623231
 C         2.146237        -1.414858        -0.138215
 O         1.470170        -2.418498         0.597080
 C         3.268932        -0.527654         0.313158
 O         2.489135         0.337299         1.127145
 H        -0.143664        -0.112351         1.498375
 H        -0.177402         1.310878         0.432481
 H        -0.612700        -0.053374        -0.400761
 H         1.354525         0.641223        -2.100540
 H         2.185449         1.800177        -0.823919
 H         4.237642         0.371119        -1.502840
 H         2.097892        -1.692613        -2.547435
 H         3.554974        -2.126583        -1.649879
 H         1.667861        -2.540599         1.546862
 H         4.322163        -0.764892         0.689589
