19
Iteration:   192
 C        -0.033589         0.209137         0.408400
 C         1.384437         0.058123        -0.030995
 C         1.989651         0.722253        -1.214571
 C         3.243604        -0.045810        -1.071057
 C         2.964543        -1.520277        -1.539035
 C         2.190510        -1.443901        -0.141923
 O         1.462828        -2.384935         0.540150
 C         3.274394        -0.512465         0.435014
 O         2.333254         0.387141         1.075956
 H        -0.349245        -0.354636         1.264825
 H        -0.198972         1.244111         0.702385
 H        -0.888768        -0.083330        -0.272373
 H         1.489843         0.608185        -2.278666
 H         2.143247         1.804494        -0.964287
 H         4.203775         0.456890        -1.415337
 H         2.361180        -1.865416        -2.359110
 H         3.939147        -2.095858        -1.520750
 H         2.089274        -2.736225         1.254035
 H         4.237252        -0.782863         0.917657
