19
Iteration:   912charge 0 multiplicity 1
 C        -0.049807         0.161432         0.416556
 C         1.394401         0.090668         0.041783
 C         2.042772         0.727346        -1.194582
 C         3.363558        -0.111986        -1.118714
 C         2.793724        -1.589913        -1.617518
 C         2.104617        -1.371578        -0.139471
 O         1.551390        -2.418419         0.555104
 C         3.224452        -0.510707         0.436853
 O         2.381477         0.496135         1.100356
 H        -0.435386        -0.477689         1.228945
 H        -0.365072         1.199892         0.542507
 H        -0.530367        -0.202299        -0.393837
 H         1.289042         0.681016        -2.036830
 H         2.188473         1.876898        -1.082515
 H         4.239780         0.311276        -1.512652
 H         2.143784        -1.555156        -2.518575
 H         3.562642        -2.308939        -1.359742
 H         2.320934        -2.782792         0.993794
 H         4.107952        -0.889886         1.091940
