19
Iteration:  3437charge 0 multiplicity 1
 C        -0.078469         0.242031         0.336647
 C         1.416256         0.098311         0.037880
 C         2.047265         0.798816        -1.211147
 C         3.271544        -0.042907        -1.160034
 C         2.806760        -1.551048        -1.500704
 C         2.167703        -1.439641        -0.090524
 O         1.547090        -2.536988         0.498783
 C         3.295537        -0.511807         0.451733
 O         2.409499         0.412181         1.139736
 H        -0.332228        -0.026987         1.339311
 H        -0.231605         1.357282         0.172449
 H        -0.575482        -0.193182        -0.532074
 H         1.470134         0.677459        -2.099154
 H         2.282350         1.823095        -0.831883
 H         4.183240         0.215964        -1.627047
 H         2.107341        -1.725518        -2.295687
 H         3.762831        -2.200690        -1.434704
 H         0.734402        -2.452808         0.934376
 H         4.114132        -0.772842         1.132313
