19
Iteration:  3306charge 0 multiplicity 1
 C        -0.053333         0.138648         0.399648
 C         1.349711         0.014833         0.012378
 C         2.115604         0.755584        -1.147323
 C         3.403811        -0.092869        -1.119006
 C         2.820497        -1.550080        -1.541883
 C         2.077112        -1.346522        -0.160263
 O         1.467958        -2.419114         0.573214
 C         3.301445        -0.410777         0.365727
 O         2.315362         0.411803         1.101247
 H        -0.283709        -0.673534         1.012698
 H        -0.252075         1.175924         0.819507
 H        -0.573226        -0.080351        -0.536032
 H         1.729270         0.853182        -2.192903
 H         2.314259         1.913922        -0.989741
 H         4.384983         0.119619        -1.568854
 H         2.254413        -1.614373        -2.463472
 H         3.595021        -2.484687        -1.533425
 H         1.915628        -2.546121         1.397424
 H         4.129280        -0.814725         0.892474
