19
Iteration:  2015charge 0 multiplicity 1
 C         0.025586         0.223511         0.624110
 C         1.389136         0.142005         0.024089
 C         2.023616         0.764900        -1.292625
 C         3.311206        -0.110114        -1.190736
 C         2.787574        -1.502911        -1.493554
 C         2.089790        -1.403866        -0.181878
 O         1.602295        -2.477068         0.602740
 C         3.231178        -0.551142         0.362832
 O         2.397149         0.380453         1.036309
 H        -0.155489        -0.328676         1.520646
 H        -0.078233         1.334111         0.916368
 H        -0.777726         0.362615        -0.201787
 H         1.541120         0.561370        -2.268244
 H         2.296697         1.779256        -1.021188
 H         4.296575         0.276255        -1.601826
 H         2.140673        -1.706523        -2.401623
 H         3.657137        -2.255739        -1.580111
 H         0.596654        -2.515876         0.483328
 H         4.133829        -0.878705         1.042301
