19
Iteration:  1027charge 0 multiplicity 1
 C        -0.101917         0.276466         0.379555
 C         1.419801         0.011960         0.080934
 C         2.016923         0.818909        -1.185290
 C         3.288029        -0.098290        -1.305117
 C         2.798393        -1.549393        -1.581311
 C         2.159545        -1.431726        -0.047212
 O         1.541448        -2.450443         0.644652
 C         3.300985        -0.480874         0.477972
 O         2.412544         0.411811         1.107299
 H        -0.466144        -0.404211         1.083950
 H        -0.302913         1.290143         0.615522
 H        -0.712294         0.043144        -0.560737
 H         1.354870         0.715566        -2.034620
 H         2.110341         1.866963        -1.019464
 H         4.202380         0.258965        -1.878520
 H         2.169917        -1.544294        -2.419963
 H         3.614067        -2.333571        -1.553303
 H         1.950368        -3.243714         0.238555
 H         4.170025        -0.758579         1.014060
