19
Iteration:  1919
 C        -0.092410         0.252941         0.479233
 C         1.442197         0.053142         0.028650
 C         1.982553         0.857785        -1.130815
 C         3.365389        -0.153881        -1.234067
 C         2.697306        -1.458277        -1.572603
 C         2.029957        -1.339158        -0.124803
 O         1.558269        -2.411165         0.631101
 C         3.287144        -0.573166         0.326642
 O         2.493514         0.318962         1.073103
 H        -0.179110        -0.291687         1.396819
 H        -0.395140         1.237586         0.617732
 H        -0.912764         0.017290        -0.292645
 H         1.489759         0.593076        -2.084505
 H         2.402826         1.756475        -0.844782
 H         4.236785         0.176458        -1.853139
 H         1.902421        -1.618802        -2.384684
 H         3.406882        -2.333991        -1.609276
 H         2.357714        -2.893940         1.048598
 H         4.250205        -1.001965         0.812813
