19
Iteration:  4715charge 0 multiplicity 1
 C        -0.112668         0.157412         0.330688
 C         1.461059         0.041631         0.087554
 C         2.150708         0.824014        -1.161572
 C         3.372613        -0.058753        -1.123741
 C         2.768405        -1.498782        -1.547484
 C         2.099497        -1.362953        -0.088629
 O         1.289121        -2.371198         0.530848
 C         3.320941        -0.562507         0.421799
 O         2.520632         0.399733         1.092669
 H        -0.393899        -0.384306         1.272486
 H        -0.560104         1.182303         0.335640
 H        -0.579875        -0.504700        -0.409366
 H         1.672463         0.571466        -2.067263
 H         2.217699         1.842365        -0.842431
 H         4.305287         0.267682        -1.687004
 H         2.118810        -1.526206        -2.515067
 H         3.510530        -2.348016        -1.516766
 H         1.890346        -3.147788         0.796862
 H         4.068360        -1.045287         0.976378
