19
Iteration:  2041charge 0 multiplicity 1
 C         0.045388         0.277782         0.491517
 C         1.381064        -0.000830        -0.008440
 C         2.085069         0.735435        -1.125806
 C         3.303301        -0.108761        -1.224928
 C         2.700573        -1.518886        -1.550765
 C         2.097648        -1.395917        -0.144092
 O         1.613610        -2.498251         0.607420
 C         3.311496        -0.479590         0.374408
 O         2.361002         0.425106         1.065116
 H        -0.076194        -0.191613         1.559214
 H        -0.165649         1.311750         0.675239
 H        -0.726986         0.014551        -0.271963
 H         1.735850         0.774154        -2.249446
 H         2.256501         1.754738        -0.705707
 H         4.116173         0.277893        -1.798592
 H         1.846770        -1.594384        -2.394464
 H         3.469637        -2.291497        -1.857917
 H         0.665303        -2.371238         0.888459
 H         4.132125        -0.795447         0.992236
