19
Iteration:  3010
 C        -0.078688         0.066831         0.472523
 C         1.376387         0.044560        -0.086753
 C         2.186182         0.828799        -1.245292
 C         3.429274        -0.169507        -1.197904
 C         2.774902        -1.474351        -1.518567
 C         2.068464        -1.365578        -0.119283
 O         1.464171        -2.467866         0.643040
 C         3.231219        -0.384793         0.445389
 O         2.369330         0.480248         1.102821
 H        -0.172463        -0.594359         1.397705
 H        -0.405938         1.052217         0.835223
 H        -0.578162        -0.087594        -0.453203
 H         1.632355         0.627890        -2.147364
 H         2.485633         1.844306        -0.907683
 H         4.367416         0.194940        -1.652375
 H         2.111276        -1.561826        -2.354552
 H         3.638998        -2.271855        -1.459626
 H         1.548577        -3.400748         0.254196
 H         4.112640        -0.709352         0.897036
