19
Iteration:  2742charge 0 multiplicity 1
 C        -0.068631         0.276434         0.411701
 C         1.421370        -0.003712        -0.014339
 C         2.017712         0.727747        -1.257283
 C         3.353724        -0.062534        -1.164379
 C         2.892195        -1.483797        -1.468006
 C         2.131317        -1.466290        -0.157415
 O         1.493287        -2.421463         0.612438
 C         3.249235        -0.468402         0.455223
 O         2.335202         0.379852         1.086772
 H        -0.392195        -0.306393         1.222776
 H        -0.060204         1.372207         0.699952
 H        -0.865413         0.139208        -0.301607
 H         1.370711         0.548203        -2.131242
 H         2.013982         1.817059        -1.031345
 H         4.177347         0.286174        -1.703516
 H         2.324264        -1.640528        -2.439812
 H         3.727764        -2.097707        -1.566854
 H         2.218260        -3.115707         0.751462
 H         4.195978        -0.735862         0.990018
