19
Iteration:  3350charge 0 multiplicity 1
 C        -0.053699         0.173038         0.342715
 C         1.489276         0.022467         0.050007
 C         2.031637         0.725096        -1.157094
 C         3.354542        -0.118918        -1.141802
 C         2.762985        -1.524489        -1.451686
 C         2.132363        -1.384651        -0.115587
 O         1.567229        -2.485274         0.469765
 C         3.255910        -0.465897         0.393521
 O         2.396528         0.472664         1.115754
 H        -0.565862        -0.518825         0.921025
 H        -0.247956         1.157528         0.859885
 H        -0.650848         0.271484        -0.576770
 H         1.396039         0.723061        -2.057167
 H         2.048630         1.867741        -0.940796
 H         4.190291         0.271798        -1.669041
 H         2.200005        -1.678982        -2.348795
 H         3.639837        -2.309718        -1.272199
 H         0.820095        -2.143032         0.917435
 H         4.017970        -0.728937         1.095679
