19
Iteration:  4794charge 0 multiplicity 1
 C         0.004033         0.472388         0.423642
 C         1.454416         0.040953         0.062222
 C         2.049143         0.763619        -1.134759
 C         3.405922        -0.062562        -1.150563
 C         2.764615        -1.467997        -1.533681
 C         2.052925        -1.399399        -0.127813
 O         1.630719        -2.567272         0.482419
 C         3.178254        -0.609365         0.402026
 O         2.337118         0.314765         1.122275
 H        -0.272234         0.162718         1.418813
 H         0.004950         1.545242         0.355137
 H        -0.686365         0.004694        -0.381399
 H         1.313852         0.668674        -1.994824
 H         2.298652         1.879363        -1.088442
 H         4.302926         0.166840        -1.731922
 H         2.253829        -1.725347        -2.559442
 H         3.569636        -2.318063        -1.357874
 H         0.690628        -2.437073         0.767260
 H         4.066699        -0.932757         0.947309
