19
Iteration:  2868charge 0 multiplicity 1
 C         0.030738         0.202084         0.294206
 C         1.449922         0.003880         0.075100
 C         1.939904         0.658019        -1.168157
 C         3.321334        -0.024794        -1.173401
 C         2.788815        -1.475432        -1.468489
 C         2.104522        -1.379738        -0.083972
 O         1.533300        -2.457794         0.505868
 C         3.304713        -0.517773         0.430985
 O         2.418844         0.422410         1.079072
 H        -0.054716        -0.217022         1.335094
 H        -0.271443         1.264929         0.438246
 H        -0.608535        -0.215704        -0.461027
 H         1.271937         0.411827        -1.980373
 H         2.040280         1.678117        -0.811374
 H         4.222093         0.383921        -1.609973
 H         2.219264        -1.762407        -2.321634
 H         3.679593        -2.205530        -1.344497
 H         0.731032        -1.989746         0.920465
 H         4.197061        -0.546642         0.937954
