19
Iteration:  1797
 C         0.006467         0.382555         0.511003
 C         1.422906         0.052596         0.132746
 C         1.972467         0.749694        -1.097678
 C         3.258272        -0.086049        -1.295927
 C         2.708538        -1.516255        -1.646028
 C         2.093748        -1.383477        -0.184518
 O         1.563765        -2.412350         0.697125
 C         3.327919        -0.531643         0.315078
 O         2.489764         0.294575         1.080580
 H        -0.371699        -0.431975         1.100760
 H        -0.126650         1.381546         0.853257
 H        -0.579958         0.180881        -0.432207
 H         1.329613         0.565909        -1.972193
 H         2.233164         1.736650        -0.813699
 H         4.156765         0.388547        -1.616501
 H         1.962567        -1.719440        -2.410579
 H         3.362177        -2.482312        -1.548649
 H         1.426308        -3.139009         0.071242
 H         4.207985        -0.768441         0.856403
