19
Iteration:  2060
 C        -0.041761         0.281742         0.381230
 C         1.397649         0.053473         0.154250
 C         2.020236         0.854635        -1.204756
 C         3.262112        -0.125382        -1.241715
 C         2.673903        -1.509310        -1.528065
 C         2.131269        -1.389441        -0.108247
 O         1.621008        -2.515415         0.582613
 C         3.286556        -0.554829         0.371030
 O         2.496655         0.392234         1.104034
 H        -0.286749        -0.208218         1.293767
 H        -0.280324         1.373750         0.291577
 H        -0.549307        -0.330881        -0.469703
 H         1.282590         0.595893        -1.968203
 H         2.231843         1.881800        -0.967551
 H         4.295420         0.161894        -1.582673
 H         2.052758        -1.500189        -2.463685
 H         3.408588        -2.383837        -1.473748
 H         0.808074        -2.211821         1.107245
 H         4.338509        -0.906599         0.705060
