19
Iteration:  2330charge 0 multiplicity 1
 C        -0.044945         0.262819         0.529635
 C         1.407455        -0.031335        -0.038913
 C         2.136275         0.755773        -1.194825
 C         3.362838        -0.121827        -1.188679
 C         2.741200        -1.471772        -1.536006
 C         2.115414        -1.431239        -0.103900
 O         1.507701        -2.497071         0.598281
 C         3.208956        -0.412333         0.370160
 O         2.356534         0.401328         1.035169
 H        -0.314424        -0.362360         1.304719
 H        -0.047491         1.316818         0.797100
 H        -0.797764         0.220462        -0.252547
 H         1.671143         0.779565        -2.157136
 H         2.289371         1.836955        -1.056981
 H         4.244401         0.360587        -1.668601
 H         2.051288        -1.587006        -2.409173
 H         3.433874        -2.314327        -1.404286
 H         2.270640        -2.808565         1.054067
 H         4.172933        -0.681331         0.945537
