19
Iteration:  3862charge 0 multiplicity 1
 C        -0.046879         0.295564         0.295745
 C         1.376115         0.038287         0.059589
 C         1.993948         0.761000        -1.236515
 C         3.462442        -0.053864        -1.054416
 C         2.820227        -1.481305        -1.413271
 C         2.147206        -1.382235        -0.129109
 O         1.488426        -2.535242         0.532890
 C         3.264557        -0.463531         0.440898
 O         2.293387         0.358995         1.051157
 H        -0.345168        -0.062969         1.188798
 H        -0.324439         1.366322         0.339372
 H        -0.628755        -0.163687        -0.522939
 H         1.565445         0.367686        -2.186728
 H         2.263512         1.879627        -1.075312
 H         4.348120         0.267642        -1.477236
 H         2.268799        -1.726944        -2.315916
 H         3.732571        -2.212017        -1.411344
 H         2.072407        -2.847673         1.165273
 H         4.252290        -0.781525         0.738060
