19
Iteration:  3353
 C        -0.070794         0.203647         0.363933
 C         1.453576         0.021570         0.061113
 C         2.071115         0.723310        -1.155223
 C         3.338326        -0.104850        -1.129636
 C         2.767932        -1.531928        -1.451512
 C         2.143277        -1.402022        -0.106214
 O         1.575724        -2.495838         0.471340
 C         3.265770        -0.454819         0.357580
 O         2.385178         0.471401         1.114304
 H        -0.656976        -0.569778         0.903491
 H        -0.194673         1.213851         0.858159
 H        -0.698122         0.192910        -0.622105
 H         1.369770         0.712642        -2.036155
 H         2.125748         1.852742        -1.000165
 H         4.251908         0.231164        -1.565440
 H         2.311581        -1.683600        -2.464888
 H         3.552988        -2.350901        -1.344772
 H         0.695969        -2.212369         0.924638
 H         4.180762        -0.623588         1.036545
