19
Iteration:   197charge 0 multiplicity 1
 C         0.013899         0.206424         0.421168
 C         1.363406         0.051464        -0.029340
 C         2.014437         0.793153        -1.220274
 C         3.261068        -0.071915        -1.101064
 C         2.923169        -1.535627        -1.522088
 C         2.239294        -1.462367        -0.118936
 O         1.470940        -2.421437         0.516653
 C         3.236176        -0.469344         0.453302
 O         2.298447         0.389111         1.060915
 H        -0.149312        -0.413984         1.359011
 H        -0.191313         1.274384         0.670819
 H        -0.692299        -0.109838        -0.364259
 H         1.485530         0.686776        -2.105356
 H         2.095486         1.830870        -0.909253
 H         4.153376         0.301273        -1.591625
 H         2.334142        -1.907442        -2.403939
 H         3.875367        -2.046050        -1.358047
 H         1.893047        -2.681889         1.309653
 H         4.194859        -0.723600         0.892996
