19
Iteration:  1187
 C        -0.033547         0.266818         0.521957
 C         1.381595         0.111794        -0.008720
 C         2.071457         0.818413        -1.208495
 C         3.353106        -0.100461        -1.252689
 C         2.756932        -1.532695        -1.547529
 C         2.071799        -1.415475        -0.120779
 O         1.561859        -2.529286         0.610615
 C         3.251054        -0.538493         0.337300
 O         2.410384         0.417910         1.101726
 H        -0.249032        -0.512600         1.287061
 H        -0.304523         1.319523         0.763847
 H        -0.849569         0.035221        -0.285619
 H         1.405739         0.786985        -2.135140
 H         2.227888         1.822494        -0.859467
 H         4.354355         0.254647        -1.703979
 H         1.991353        -1.610815        -2.382119
 H         3.454755        -2.322007        -1.666007
 H         1.965382        -2.467697         1.518243
 H         4.154466        -1.009561         0.750954
