19
Iteration:  2152charge 0 multiplicity 1
 C        -0.028540         0.294736         0.534558
 C         1.453162         0.067483         0.050155
 C         2.014597         0.710470        -1.159938
 C         3.301661        -0.113421        -1.206435
 C         2.811168        -1.581314        -1.527019
 C         2.085373        -1.389569        -0.211315
 O         1.495514        -2.416823         0.520286
 C         3.244585        -0.493643         0.384915
 O         2.420895         0.442635         1.065832
 H        -0.242637        -0.598774         1.206578
 H        -0.157143         1.244446         1.058587
 H        -0.742601         0.197705        -0.226424
 H         1.417093         0.390962        -2.024259
 H         2.344132         1.753594        -1.089748
 H         4.249195         0.305555        -1.545189
 H         2.170552        -1.670646        -2.501989
 H         3.458150        -2.468856        -1.333787
 H         2.111239        -2.789661         1.123897
 H         4.076256        -0.873541         0.909272
