19
Iteration:    92charge 0 multiplicity 1
 C        -0.067266         0.216703         0.289406
 C         1.358766         0.059007        -0.013847
 C         1.984801         0.727862        -1.220060
 C         3.334311        -0.071341        -1.063734
 C         2.844928        -1.508770        -1.549225
 C         2.167649        -1.337863        -0.178509
 O         1.715283        -2.364022         0.601317
 C         3.232908        -0.587358         0.507364
 O         2.339263         0.359559         1.149789
 H        -0.255947        -0.381745         1.231497
 H        -0.478008         1.249784         0.556018
 H        -0.805192        -0.194782        -0.431717
 H         1.345011         0.279760        -2.174505
 H         1.805360         1.858211        -1.302553
 H         4.333170         0.507906        -1.506807
 H         2.360130        -1.675841        -2.563245
 H         3.719452        -2.170741        -1.508427
 H         0.783828        -2.408301         0.658037
 H         3.992454        -1.134580         1.114190
