19
Iteration:   270
 C        -0.016192         0.219857         0.311729
 C         1.398211        -0.054259         0.016415
 C         2.045775         0.767568        -1.170339
 C         3.246358        -0.028058        -1.219430
 C         2.806443        -1.453068        -1.509327
 C         2.087325        -1.430898        -0.095980
 O         1.638889        -2.493211         0.648770
 C         3.295929        -0.418802         0.355421
 O         2.361845         0.323324         1.179835
 H        -0.354184        -0.161732         1.248950
 H        -0.224658         1.278487         0.273092
 H        -0.691197        -0.082858        -0.575753
 H         1.492611         0.639173        -2.231854
 H         2.106768         1.861129        -0.867056
 H         4.167277         0.280208        -1.654367
 H         2.341475        -1.550029        -2.424362
 H         3.777842        -2.042468        -1.456746
 H         0.720481        -2.259141         0.695779
 H         4.225685        -0.647740         0.822528
