19
Iteration:  1906
 C         0.001911         0.266838         0.481155
 C         1.380929         0.040674         0.058166
 C         2.015598         0.787653        -1.156346
 C         3.267120        -0.077446        -1.235632
 C         2.717771        -1.522277        -1.575356
 C         2.130454        -1.426426        -0.190836
 O         1.474528        -2.413742         0.626112
 C         3.309171        -0.532418         0.307248
 O         2.508736         0.337972         1.140321
 H        -0.283118        -0.194902         1.399734
 H        -0.182562         1.326081         0.554556
 H        -0.526234        -0.254035        -0.343125
 H         1.382194         0.862242        -2.004442
 H         2.043246         1.816526        -0.953274
 H         4.094185         0.363130        -1.774191
 H         2.093342        -1.401554        -2.512625
 H         3.465454        -2.396173        -1.729387
 H         2.036343        -2.559557         1.376016
 H         4.203841        -0.957293         0.804925
