19
Iteration:  1865
 C        -0.031618         0.256522         0.602744
 C         1.444943         0.083367         0.088469
 C         2.043905         0.717145        -1.209934
 C         3.311912        -0.093875        -1.229429
 C         2.653424        -1.560536        -1.585390
 C         2.084358        -1.358991        -0.046135
 O         1.559936        -2.523813         0.460444
 C         3.271750        -0.479154         0.351822
 O         2.542002         0.446240         1.076533
 H        -0.296485        -0.255861         1.535621
 H        -0.261672         1.296221         0.726242
 H        -0.818158        -0.315176        -0.022468
 H         1.464933         0.679892        -2.207688
 H         2.318171         1.752003        -0.958945
 H         4.239589         0.339458        -1.639635
 H         1.949768        -1.761471        -2.431236
 H         3.442456        -2.320854        -1.582168
 H         0.646707        -2.335808         0.858306
 H         4.285274        -0.777520         0.801209
