19
Iteration:   473
 C        -0.029298         0.275018         0.385388
 C         1.445976         0.012884         0.061477
 C         1.923123         0.644979        -1.222707
 C         3.333827        -0.018788        -1.089810
 C         2.782229        -1.505894        -1.495832
 C         2.111189        -1.402522        -0.075385
 O         1.593407        -2.490654         0.519789
 C         3.329577        -0.441704         0.375692
 O         2.407093         0.365798         1.104932
 H        -0.597045        -0.227049         1.172815
 H        -0.201950         1.380271         0.515007
 H        -0.590281        -0.162115        -0.500661
 H         1.382605         0.335031        -2.131097
 H         1.959745         1.766878        -1.045156
 H         4.297725         0.460794        -1.639098
 H         2.180590        -1.415531        -2.460897
 H         3.630896        -2.150139        -1.659511
 H         0.831634        -2.253899         1.000793
 H         4.281352        -0.676792         0.831364
