19
Iteration:  2681charge 0 multiplicity 1
 C        -0.068771         0.075958         0.335964
 C         1.462931         0.085084         0.048581
 C         2.019817         0.808120        -1.231119
 C         3.290680        -0.067535        -1.149997
 C         2.834989        -1.620578        -1.387245
 C         2.189762        -1.380364        -0.082715
 O         1.395861        -2.363160         0.549771
 C         3.326694        -0.461582         0.425496
 O         2.412913         0.452995         1.075207
 H        -0.197052        -0.426526         1.324691
 H        -0.530795         1.023953         0.363888
 H        -0.521570        -0.432158        -0.623892
 H         1.310418         0.665668        -2.080391
 H         2.321626         1.802389        -0.936055
 H         3.960973         0.360289        -1.986646
 H         2.117433        -1.664516        -2.180055
 H         3.820607        -2.200324        -1.564382
 H         1.761595        -3.301136         0.482652
 H         4.275010        -0.690106         1.039648
