19
Iteration:  2763charge 0 multiplicity 1
 C        -0.008831         0.367086         0.303706
 C         1.389477        -0.042994         0.031004
 C         1.972598         0.717200        -1.165017
 C         3.300698        -0.053059        -1.181149
 C         2.891331        -1.569026        -1.502393
 C         2.116062        -1.354265        -0.056463
 O         1.542916        -2.483722         0.556787
 C         3.222412        -0.454345         0.336140
 O         2.359242         0.356907         1.142626
 H        -0.461625        -0.295264         0.976373
 H        -0.060195         1.443210         0.671911
 H        -0.564587         0.124365        -0.519661
 H         1.300669         0.706851        -1.995867
 H         1.960202         1.801209        -0.918841
 H         4.147142         0.493497        -1.390678
 H         2.432291        -1.978680        -2.448533
 H         3.697375        -2.179765        -1.201663
 H         2.244561        -2.877064         1.078194
 H         4.193900        -0.705421         0.708132
