19
Iteration:   337charge 0 multiplicity 1
 C        -0.059455         0.184216         0.398420
 C         1.435619         0.067542         0.027628
 C         2.041695         0.722226        -1.209987
 C         3.338381        -0.084857        -1.122508
 C         2.730384        -1.509823        -1.469921
 C         2.189816        -1.332828        -0.081321
 O         1.595424        -2.549506         0.547918
 C         3.266965        -0.440650         0.449492
 O         2.367675         0.508659         1.048122
 H        -0.194384        -0.606578         1.149881
 H        -0.351668         1.129609         0.842214
 H        -0.765266        -0.096786        -0.403959
 H         1.616455         0.401308        -2.237986
 H         1.983124         1.860258        -1.100246
 H         4.145600         0.261700        -1.587281
 H         1.971991        -1.570591        -2.183520
 H         3.563279        -2.216570        -1.548245
 H         1.099387        -3.179774        -0.053279
 H         4.142954        -0.757352         1.029925
