19
Iteration:    84charge 0 multiplicity 1
 C        -0.107251         0.225466         0.344521
 C         1.429350         0.030149        -0.005586
 C         1.968006         0.725824        -1.221740
 C         3.294242         0.000350        -1.112733
 C         2.949170        -1.492485        -1.583188
 C         2.165115        -1.390939        -0.150411
 O         1.652860        -2.342334         0.624300
 C         3.262788        -0.570554         0.495390
 O         2.295343         0.294868         1.131408
 H        -0.230843        -0.191314         1.337433
 H        -0.315301         1.313375         0.415970
 H        -0.822890        -0.174464        -0.490753
 H         1.452640         0.198535        -2.080476
 H         2.032676         1.823686        -1.350680
 H         4.083969         0.463955        -1.606375
 H         2.440070        -1.613920        -2.521483
 H         3.762655        -2.257966        -1.348991
 H         0.695852        -2.248386         0.671624
 H         4.134415        -1.053589         1.034435
