19
Iteration:  4973
 C        -0.048292         0.494970         0.425431
 C         1.436101         0.073082        -0.018459
 C         2.091099         0.800891        -1.124512
 C         3.287954        -0.093793        -1.103068
 C         2.753766        -1.428752        -1.596181
 C         2.122252        -1.461732        -0.191229
 O         1.511236        -2.569760         0.518062
 C         3.162222        -0.647160         0.384097
 O         2.447812         0.280844         1.160798
 H        -0.136629         0.534029         1.549722
 H        -0.156618         1.506606         0.024441
 H        -0.834104        -0.059738         0.096365
 H         1.605597         0.682104        -2.064125
 H         2.351686         1.771609        -0.717192
 H         4.225721         0.272385        -1.585219
 H         1.947866        -1.362533        -2.394978
 H         3.676982        -2.086264        -1.755804
 H         2.104034        -2.658962         1.358575
 H         4.139258        -1.005458         0.651681
