19
Iteration:  2645charge 0 multiplicity 1
 C        -0.031644         0.252199         0.312759
 C         1.403036         0.004762         0.024906
 C         2.049857         0.725942        -1.232673
 C         3.348836        -0.014437        -1.158421
 C         2.853494        -1.471617        -1.517370
 C         2.097134        -1.435789        -0.102119
 O         1.517866        -2.399205         0.682872
 C         3.261215        -0.529150         0.430979
 O         2.328394         0.371550         1.067945
 H        -0.264027        -0.186085         1.259740
 H        -0.351286         1.349164         0.386937
 H        -0.656011        -0.356510        -0.371311
 H         1.443011         0.564491        -2.124682
 H         2.049249         1.821799        -1.149444
 H         4.252260         0.165839        -1.641417
 H         2.113634        -1.370186        -2.387467
 H         3.594209        -2.189578        -1.740664
 H         2.312514        -2.979970         0.930382
 H         4.113496        -0.922391         1.073873
