19
Iteration:  2571
 C         0.003830         0.265474         0.371276
 C         1.388713         0.030335         0.021526
 C         1.968040         0.680215        -1.246900
 C         3.374747        -0.076227        -1.161441
 C         2.839948        -1.475763        -1.471260
 C         2.170814        -1.410595        -0.081524
 O         1.545071        -2.494621         0.547520
 C         3.255793        -0.454650         0.398345
 O         2.362225         0.400225         1.112020
 H        -0.457102        -0.526934         0.919609
 H        -0.135078         1.167634         0.907685
 H        -0.503348         0.267789        -0.659781
 H         1.331640         0.318612        -2.069895
 H         1.730777         1.718418        -1.254158
 H         4.298473         0.339434        -1.391983
 H         2.123651        -1.621152        -2.254411
 H         3.606705        -2.251144        -1.489015
 H         1.127931        -2.076217         1.289452
 H         4.276758        -0.700733         0.829853
