19
Iteration:  4696charge 0 multiplicity 1
 C         0.008739         0.269205         0.332274
 C         1.452191         0.048320         0.015216
 C         2.117277         0.781124        -1.128142
 C         3.337621        -0.149326        -1.136828
 C         2.796251        -1.471521        -1.523511
 C         2.071625        -1.412707        -0.166084
 O         1.429146        -2.380968         0.622913
 C         3.256676        -0.530563         0.376312
 O         2.361311         0.349092         1.111971
 H        -0.231276        -0.354050         1.165679
 H        -0.037980         1.294355         0.601003
 H        -0.573728        -0.067972        -0.559469
 H         1.470637         0.830265        -2.060885
 H         2.265342         1.801482        -0.587789
 H         4.294024         0.183090        -1.524070
 H         2.184569        -1.539023        -2.329821
 H         3.495898        -2.311931        -1.365276
 H         1.750444        -3.145733         0.114163
 H         4.178400        -0.758113         0.902176
