19
Iteration:  2772
 C        -0.094616         0.346866         0.305433
 C         1.411766         0.039808         0.080738
 C         1.961343         0.749255        -1.176601
 C         3.317225        -0.050651        -1.199232
 C         2.859050        -1.538609        -1.431649
 C         2.129396        -1.454311        -0.131330
 O         1.576518        -2.480471         0.545089
 C         3.264592        -0.495713         0.408110
 O         2.367977         0.364471         1.083738
 H        -0.568813        -0.259345         1.078505
 H        -0.236594         1.461325         0.562407
 H        -0.620616         0.327524        -0.602692
 H         1.294558         0.529340        -1.952298
 H         2.061328         1.772945        -0.776670
 H         4.254320         0.294649        -1.576402
 H         2.329325        -1.862066        -2.338919
 H         3.740739        -2.221402        -1.392463
 H         2.232100        -2.810228         1.150377
 H         4.148280        -0.705203         0.859778
