19
Iteration:  4074charge 0 multiplicity 1
 C        -0.116555         0.118795         0.279539
 C         1.358633         0.011238        -0.064838
 C         2.158293         0.791770        -1.149633
 C         3.344072        -0.113143        -1.126500
 C         2.799760        -1.434667        -1.430462
 C         2.145199        -1.340633        -0.113083
 O         1.469252        -2.372691         0.598984
 C         3.271205        -0.512708         0.484437
 O         2.375987         0.385909         1.041327
 H        -0.298897        -0.199585         1.321442
 H        -0.371665         1.130346         0.152319
 H        -0.631353        -0.462228        -0.409547
 H         1.675637         0.592690        -2.154383
 H         2.440674         1.844178        -0.860200
 H         4.355875         0.190512        -1.600159
 H         2.189995        -1.513280        -2.387868
 H         3.500885        -2.244917        -1.481312
 H         2.058264        -3.092989         0.662163
 H         3.957910        -0.862770         1.301012
