19
Iteration:  4735charge 0 multiplicity 1
 C         0.072190         0.066347         0.347973
 C         1.451247         0.118616        -0.011092
 C         2.057684         0.816590        -1.168005
 C         3.378258        -0.161765        -1.115345
 C         2.705038        -1.502052        -1.465250
 C         2.093165        -1.357007        -0.120703
 O         1.314162        -2.330444         0.413331
 C         3.267834        -0.543021         0.451691
 O         2.495365         0.403761         1.188495
 H        -0.160247        -0.218177         1.427352
 H        -0.436426         1.071629         0.134816
 H        -0.478511        -0.668781        -0.232241
 H         1.469521         0.671173        -2.058159
 H         2.457356         1.763380        -1.004340
 H         4.392753         0.181402        -1.540060
 H         2.002772        -1.451888        -2.462956
 H         3.447612        -2.307832        -1.602547
 H         1.702982        -2.855089         1.180732
 H         4.274128        -0.769470         0.837362
