19
Iteration:  1125
 C        -0.005915         0.287724         0.472910
 C         1.420252         0.071288         0.064459
 C         1.998037         0.712763        -1.167695
 C         3.244831        -0.064416        -1.151132
 C         2.777425        -1.535591        -1.547092
 C         2.090000        -1.415314        -0.122833
 O         1.580686        -2.482491         0.621621
 C         3.294384        -0.521015         0.349149
 O         2.448101         0.434101         1.073003
 H        -0.384997        -0.232529         1.288274
 H        -0.266082         1.305379         0.528432
 H        -0.400149        -0.144059        -0.459220
 H         1.313841         0.529477        -2.052597
 H         2.132340         1.797631        -1.159618
 H         4.177381         0.304754        -1.626038
 H         2.083351        -1.564631        -2.348521
 H         3.750076        -2.139650        -1.451015
 H         1.015472        -2.944968        -0.049681
 H         4.229810        -0.727735         0.793191
