19
Iteration:  4806
 C         0.040805         0.516325         0.367027
 C         1.362788         0.049237         0.095655
 C         2.067597         0.784434        -1.209946
 C         3.303240        -0.139356        -1.170001
 C         2.763472        -1.484827        -1.506477
 C         2.078125        -1.426941        -0.151427
 O         1.647720        -2.599951         0.497059
 C         3.271706        -0.486470         0.429038
 O         2.362576         0.272932         1.188873
 H        -0.408782         0.123183         1.258651
 H         0.096930         1.580314         0.506300
 H        -0.724832         0.394592        -0.462497
 H         1.425278         0.482847        -2.114451
 H         2.038580         1.900651        -0.933215
 H         4.214095         0.228899        -1.593019
 H         2.247321        -1.321809        -2.519913
 H         3.446154        -2.427603        -1.501038
 H         0.644837        -2.744193         0.483764
 H         4.146100        -0.910738         0.999695
