19
Iteration:   357
 C        -0.039610         0.178522         0.407866
 C         1.354785         0.011647         0.049140
 C         1.994921         0.779589        -1.192967
 C         3.256582        -0.104385        -1.272318
 C         2.843971        -1.591847        -1.445615
 C         2.215561        -1.366609        -0.066934
 O         1.518516        -2.464218         0.547110
 C         3.297709        -0.420679         0.448663
 O         2.382716         0.461649         1.101413
 H        -0.499555        -0.454190         1.122485
 H        -0.088911         1.200400         0.669398
 H        -0.559739        -0.060024        -0.583810
 H         1.286725         0.979513        -2.077794
 H         2.255287         1.740934        -0.743549
 H         4.143712         0.400225        -1.676293
 H         2.380965        -1.646916        -2.404332
 H         3.691063        -2.364752        -1.368508
 H         1.556635        -3.250525         0.019711
 H         4.259536        -0.502053         0.879356
