19
Iteration:  3275charge 0 multiplicity 1
 C        -0.025302         0.289955         0.351407
 C         1.403092         0.049692        -0.052542
 C         2.053190         0.832541        -1.214565
 C         3.301148        -0.016630        -1.120134
 C         2.814515        -1.537959        -1.511213
 C         2.128760        -1.420434        -0.102087
 O         1.543441        -2.521973         0.600626
 C         3.217353        -0.513525         0.449256
 O         2.342098         0.370641         1.116200
 H        -0.301257        -0.255304         1.207675
 H        -0.445472         1.377363         0.423576
 H        -0.573578        -0.077884        -0.579853
 H         1.626004         0.658268        -2.248728
 H         2.205592         1.973500        -1.144118
 H         4.258734         0.072324        -1.521395
 H         2.160933        -1.549593        -2.324324
 H         3.740863        -2.162549        -1.532018
 H         2.279546        -3.113389         0.980355
 H         4.094806        -0.871000         1.013129
