19
Iteration:  3276
 C        -0.028836         0.283881         0.350603
 C         1.398803         0.052773        -0.049724
 C         2.051258         0.831911        -1.211450
 C         3.304903        -0.020493        -1.121633
 C         2.819784        -1.533344        -1.506970
 C         2.132461        -1.423802        -0.112640
 O         1.546139        -2.515718         0.600943
 C         3.210039        -0.516035         0.455744
 O         2.346505         0.371064         1.109991
 H        -0.279572        -0.273051         1.223704
 H        -0.424034         1.374821         0.433095
 H        -0.596894        -0.076242        -0.588748
 H         1.632435         0.720207        -2.240968
 H         2.215225         1.932012        -1.165328
 H         4.244175         0.037975        -1.523618
 H         2.121032        -1.575272        -2.315508
 H         3.723078        -2.114146        -1.527236
 H         2.253900        -3.080843         0.991069
 H         4.095803        -0.895492         1.035995
