19
Iteration:  4224charge 0 multiplicity 1
 C        -0.136046         0.176068         0.231780
 C         1.412420         0.057571         0.054237
 C         2.100973         0.803192        -1.247750
 C         3.322728        -0.059900        -1.193753
 C         2.798936        -1.503720        -1.500447
 C         2.214987        -1.453863        -0.119118
 O         1.436011        -2.343100         0.550842
 C         3.286723        -0.540901         0.565142
 O         2.397831         0.347933         1.158580
 H        -0.414407        -0.390603         1.157683
 H        -0.344517         1.239294        -0.021420
 H        -0.642863        -0.451079        -0.544452
 H         1.551977         0.839264        -2.138339
 H         2.194512         1.868998        -1.072130
 H         4.297324         0.382988        -1.403965
 H         2.108939        -1.747300        -2.218706
 H         3.711429        -2.121253        -1.363142
 H         1.936730        -2.881169         1.098101
 H         4.181117        -0.721186         1.017737
