19
Iteration:  2316charge 0 multiplicity 1
 C        -0.046757         0.279535         0.471631
 C         1.326367         0.072691        -0.003072
 C         2.047463         0.763461        -1.190297
 C         3.318138        -0.105251        -1.187759
 C         2.796558        -1.547803        -1.481377
 C         2.123371        -1.400707        -0.132835
 O         1.547406        -2.501386         0.539932
 C         3.323761        -0.561024         0.417825
 O         2.358473         0.441122         1.006218
 H        -0.124333        -0.256174         1.477324
 H        -0.077344         1.393396         0.806062
 H        -0.834536        -0.033963        -0.179866
 H         1.487919         0.768453        -2.144868
 H         2.305278         1.748306        -0.686772
 H         4.306171         0.213665        -1.782860
 H         2.066013        -1.465446        -2.364786
 H         3.588190        -2.245250        -1.707621
 H         1.793417        -2.659819         1.507637
 H         4.258466        -0.679479         0.939229
