19
Iteration:   503
 C         0.002485         0.226911         0.505169
 C         1.374965         0.082729        -0.031926
 C         2.051287         0.773436        -1.250353
 C         3.300886        -0.120926        -1.178592
 C         2.861706        -1.542748        -1.526835
 C         2.101155        -1.444681        -0.143829
 O         1.601731        -2.486660         0.531399
 C         3.230641        -0.441560         0.459531
 O         2.289010         0.394124         1.052378
 H        -0.200607        -0.374376         1.422092
 H        -0.114092         1.317676         0.789155
 H        -0.703613        -0.151455        -0.200987
 H         1.431614         0.818208        -2.215151
 H         2.225663         1.853149        -0.699955
 H         4.226427         0.261770        -1.679832
 H         2.362507        -1.579965        -2.522456
 H         3.717541        -2.220473        -1.450349
 H         1.436552        -2.329194         1.510056
 H         4.219716        -0.683790         1.039916
