19
Iteration:  3604
 C        -0.012491         0.187248         0.370439
 C         1.404247         0.075170        -0.050720
 C         2.093934         0.813146        -1.243738
 C         3.333509        -0.072360        -1.160903
 C         2.893294        -1.460683        -1.460898
 C         2.087819        -1.381081        -0.072625
 O         1.534194        -2.492131         0.622474
 C         3.241487        -0.493828         0.443691
 O         2.290143         0.407092         1.080880
 H         0.028086        -0.267342         1.345229
 H        -0.405925         1.233306         0.485287
 H        -0.676528        -0.312873        -0.393166
 H         1.548020         0.569041        -2.164782
 H         2.545387         1.779562        -0.993664
 H         4.371359         0.140160        -1.532671
 H         2.294306        -1.567649        -2.397642
 H         3.618920        -2.347419        -1.322743
 H         0.939471        -3.015515         0.103762
 H         3.978524        -1.020836         1.059170
