19
Iteration:   331charge 0 multiplicity 1
 C        -0.016979         0.178271         0.415771
 C         1.378728         0.089064         0.027709
 C         2.053515         0.727954        -1.281615
 C         3.372341        -0.048048        -1.099383
 C         2.716851        -1.487332        -1.441474
 C         2.105576        -1.336305        -0.081405
 O         1.620013        -2.588609         0.586224
 C         3.295373        -0.457178         0.422829
 O         2.353553         0.486786         1.038179
 H        -0.225963        -0.644059         1.147910
 H        -0.302158         1.163885         0.892473
 H        -0.573662        -0.187324        -0.454099
 H         1.642701         0.447848        -2.197277
 H         1.920961         1.778006        -1.122326
 H         4.380710         0.509352        -1.512320
 H         2.089833        -1.411533        -2.445977
 H         3.386655        -2.358145        -1.518038
 H         1.012962        -3.006305        -0.005034
 H         4.166093        -0.820732         1.021956
