19
Iteration:  3327charge 0 multiplicity 1
 C        -0.037655         0.105902         0.352886
 C         1.482077         0.080608        -0.048752
 C         2.086853         0.782616        -1.236326
 C         3.294951        -0.034968        -1.199665
 C         2.799501        -1.482253        -1.467962
 C         2.156581        -1.380006        -0.041250
 O         1.449557        -2.440511         0.518844
 C         3.265809        -0.564092         0.494657
 O         2.388479         0.398446         1.109733
 H        -0.278950        -0.764829         0.917762
 H        -0.356215         0.994962         0.917446
 H        -0.670898         0.055034        -0.518908
 H         1.417759         0.652139        -2.099452
 H         2.172006         1.908384        -1.283575
 H         4.264606         0.350473        -1.581219
 H         2.211773        -1.484690        -2.369220
 H         3.623219        -2.327122        -1.456032
 H         1.366909        -2.284255         1.540794
 H         4.198666        -0.687546         0.970441
