19
Iteration:  1725charge 0 multiplicity 1
 C         0.068414         0.228674         0.609961
 C         1.432817         0.064273         0.024277
 C         2.025436         0.816355        -1.201725
 C         3.311936        -0.057691        -1.249133
 C         2.662624        -1.525935        -1.559437
 C         2.076565        -1.387099        -0.149760
 O         1.427849        -2.401140         0.550018
 C         3.301588        -0.565658         0.382570
 O         2.507881         0.336774         1.044520
 H        -0.071910        -0.497236         1.418805
 H        -0.103339         1.270711         0.868937
 H        -0.665402        -0.214304        -0.065721
 H         1.302994         0.626267        -2.028869
 H         2.109043         1.861541        -0.920026
 H         4.102341         0.442958        -1.750987
 H         2.161440        -1.574344        -2.553606
 H         3.333772        -2.349906        -1.484548
 H         1.914214        -2.678093         1.370879
 H         4.325693        -0.896950         0.685742
