19
Iteration:  3579
 C        -0.086034         0.270710         0.365864
 C         1.338722         0.050744        -0.028047
 C         2.025222         0.768570        -1.173369
 C         3.372769        -0.062465        -1.070547
 C         2.822597        -1.595997        -1.452784
 C         2.136320        -1.423274        -0.106149
 O         1.578783        -2.499683         0.527991
 C         3.257729        -0.482292         0.434565
 O         2.341588         0.507517         1.088238
 H        -0.286141        -0.376121         1.247206
 H        -0.218651         1.413875         0.689511
 H        -0.770295         0.117796        -0.577883
 H         1.813124         0.479125        -2.169965
 H         2.518933         1.738567        -0.914670
 H         4.221513         0.179006        -1.660845
 H         2.184698        -1.724187        -2.309212
 H         3.755887        -2.292015        -1.459428
 H         1.417522        -3.242397         0.010486
 H         4.159693        -0.889890         0.997221
