19
Iteration:  4475charge 0 multiplicity 1
 C        -0.073330         0.459063         0.452258
 C         1.360036         0.064897        -0.131087
 C         2.099497         0.723166        -1.219943
 C         3.316367        -0.105457        -1.054433
 C         2.838469        -1.542236        -1.410111
 C         2.077491        -1.442909        -0.132577
 O         1.680202        -2.475345         0.506982
 C         3.246114        -0.524896         0.490983
 O         2.293447         0.353909         1.051492
 H         0.070982         0.245099         1.534524
 H        -0.371712         1.480846         0.166625
 H        -0.870412        -0.096961         0.068012
 H         1.663786         0.530937        -2.239373
 H         2.146748         1.837145        -0.858005
 H         4.294312         0.285636        -1.436418
 H         2.301164        -1.652202        -2.311303
 H         3.583671        -2.406054        -1.534967
 H         1.198354        -3.137406        -0.015076
 H         3.965651        -0.890065         1.090611
