19
Iteration:  3482charge 0 multiplicity 1
 C        -0.124743         0.143587         0.400120
 C         1.448059         0.063201        -0.042731
 C         2.101108         0.857206        -1.304134
 C         3.342658        -0.153944        -1.127929
 C         2.806981        -1.492769        -1.504393
 C         2.186590        -1.390151        -0.161644
 O         1.439156        -2.423684         0.531822
 C         3.229640        -0.505682         0.523357
 O         2.404133         0.406814         1.139142
 H        -0.169821        -0.598334         1.146027
 H        -0.593113         1.127876         0.695558
 H        -0.575507        -0.317593        -0.538899
 H         1.678012         0.528887        -2.215549
 H         2.357819         1.859803        -0.859426
 H         4.183288         0.338670        -1.550906
 H         2.073548        -1.420213        -2.275347
 H         3.595560        -2.383841        -1.556865
 H         1.779222        -2.438437         1.388377
 H         4.225553        -0.846745         0.977576
