19
Iteration:  4886charge 0 multiplicity 1
 C         0.021094         0.138085         0.459260
 C         1.423772         0.074240         0.012042
 C         2.100844         0.746514        -1.211784
 C         3.399520        -0.134231        -1.104080
 C         2.741027        -1.488116        -1.562739
 C         2.111785        -1.386568        -0.167070
 O         1.340113        -2.292821         0.572932
 C         3.316034        -0.559014         0.456338
 O         2.447294         0.379498         1.103488
 H        -0.283975        -0.841848         0.899989
 H        -0.072118         0.855908         1.303861
 H        -0.562481         0.428012        -0.327996
 H         1.435222         0.941273        -2.173014
 H         2.257691         1.795785        -0.782310
 H         4.192143         0.317873        -1.758664
 H         2.177576        -1.501765        -2.507827
 H         3.382358        -2.374288        -1.515244
 H         1.165967        -3.004090        -0.103599
 H         4.274219        -0.854917         0.905212
