19
Iteration:  2535
 C        -0.046358         0.123772         0.465310
 C         1.408454         0.083380        -0.056947
 C         2.033830         0.837060        -1.187181
 C         3.399957        -0.091757        -1.185188
 C         2.838650        -1.592250        -1.469725
 C         2.180363        -1.402114        -0.102446
 O         1.559414        -2.415075         0.641960
 C         3.153006        -0.471550         0.323086
 O         2.353366         0.434476         1.044999
 H        -0.254640        -0.683281         1.149881
 H        -0.337208         1.136198         0.913109
 H        -0.714590         0.013769        -0.334479
 H         1.522346         0.841882        -2.119859
 H         2.447627         1.793280        -0.803026
 H         4.445603         0.065117        -1.450435
 H         2.263215        -1.937424        -2.381683
 H         3.589805        -2.314112        -1.358359
 H         0.653466        -2.557016         0.481041
 H         4.102691        -0.668150         0.809657
