19
Iteration:  2308
 C        -0.025473         0.309280         0.467730
 C         1.410801         0.052169         0.019301
 C         1.986215         0.788403        -1.194465
 C         3.295072        -0.137281        -1.166444
 C         2.774976        -1.567276        -1.520541
 C         2.141066        -1.413068        -0.084357
 O         1.568476        -2.515159         0.500205
 C         3.305775        -0.521319         0.391218
 O         2.376621         0.445021         1.045842
 H        -0.057328        -0.278153         1.326302
 H        -0.309561         1.350768         0.652384
 H        -0.752205        -0.121808        -0.192354
 H         1.493926         0.915081        -2.133067
 H         2.110648         1.880772        -0.981976
 H         4.271627         0.229461        -1.616578
 H         2.088700        -1.640537        -2.416909
 H         3.640569        -2.235078        -1.531609
 H         1.551907        -2.284328         1.497505
 H         4.114023        -0.994980         1.043047
