19
Iteration:  4174
 C        -0.100624         0.347079         0.381954
 C         1.329814         0.028352        -0.099040
 C         2.116650         0.776447        -1.265164
 C         3.398181        -0.133989        -1.095071
 C         2.887839        -1.530639        -1.436241
 C         2.184085        -1.414858        -0.056110
 O         1.545919        -2.513850         0.529305
 C         3.199428        -0.477838         0.510514
 O         2.266251         0.425939         1.069774
 H        -0.495287        -0.495243         1.014080
 H         0.058252         1.283470         0.867562
 H        -0.765389         0.581195        -0.416375
 H         1.478686         0.569220        -2.228390
 H         2.140681         1.889856        -1.136765
 H         4.279327         0.270686        -1.676740
 H         2.136885        -1.558007        -2.344922
 H         3.647420        -2.326368        -1.495179
 H         2.222903        -3.238136         0.669810
 H         4.046178        -0.870089         1.213464
