19
Iteration:  4960charge 0 multiplicity 1
 C         0.043952         0.496059         0.417206
 C         1.350723         0.043721         0.042673
 C         2.101405         0.810250        -1.135759
 C         3.330561        -0.089941        -1.118448
 C         2.725813        -1.418089        -1.610573
 C         2.041916        -1.458390        -0.106491
 O         1.511199        -2.564884         0.499914
 C         3.288044        -0.600908         0.408473
 O         2.394887         0.279302         1.090898
 H         0.023001         0.362776         1.521672
 H        -0.252236         1.542584         0.229023
 H        -0.652507        -0.168061        -0.085342
 H         1.563739         0.832619        -2.007442
 H         2.224861         1.884566        -1.001825
 H         4.250308         0.316509        -1.365152
 H         2.038280        -1.525435        -2.528966
 H         3.418662        -2.313666        -1.812886
 H         2.112353        -2.980044         1.090966
 H         4.116790        -0.949556         1.079175
