19
Iteration:  3725charge 0 multiplicity 1
 C        -0.024340         0.350127         0.322752
 C         1.366969         0.013551        -0.046307
 C         2.060257         0.726795        -1.180731
 C         3.366232        -0.076123        -1.073388
 C         2.856013        -1.538884        -1.457667
 C         2.190470        -1.434793        -0.111680
 O         1.526397        -2.426695         0.549041
 C         3.179869        -0.495516         0.462395
 O         2.266172         0.380399         1.023149
 H        -0.077150        -0.548508         1.049874
 H        -0.283198         1.220926         0.945642
 H        -0.670525         0.297988        -0.564331
 H         1.525288         0.529531        -2.100909
 H         2.028491         1.757779        -1.033448
 H         4.314442         0.529181        -1.305746
 H         2.322559        -1.920080        -2.396334
 H         3.819889        -2.022804        -1.409178
 H         2.256041        -2.991399         1.026830
 H         4.062092        -0.817976         0.984427
