19
Iteration:  3974
 C        -0.096374         0.229785         0.298153
 C         1.403068         0.066294        -0.020255
 C         2.058769         0.796585        -1.214779
 C         3.396765        -0.069197        -1.123026
 C         2.814897        -1.569262        -1.406879
 C         2.110699        -1.374458        -0.080272
 O         1.596521        -2.534777         0.519534
 C         3.198570        -0.448289         0.461533
 O         2.382358         0.403969         1.079116
 H        -0.432696        -0.409989         1.072509
 H        -0.029185         1.199424         0.737978
 H        -0.774892        -0.014550        -0.480307
 H         1.680957         0.541833        -2.232945
 H         2.308222         1.894594        -0.892895
 H         4.314302         0.370501        -1.600929
 H         2.142915        -1.662785        -2.325604
 H         3.663895        -2.309759        -1.454478
 H         0.710905        -2.374428         0.995043
 H         4.055925        -0.887085         0.969142
