19
Iteration:  3491
 C        -0.030941         0.132319         0.360279
 C         1.384821         0.134150        -0.074728
 C         2.118080         0.801878        -1.223457
 C         3.350727        -0.092982        -1.133421
 C         2.860420        -1.493809        -1.522593
 C         2.105838        -1.408040        -0.133325
 O         1.471578        -2.413936         0.562361
 C         3.211092        -0.538857         0.435959
 O         2.370577         0.388156         1.143866
 H        -0.048272        -0.608807         1.242935
 H        -0.445764         1.136162         0.774972
 H        -0.719392        -0.106648        -0.505612
 H         1.527548         0.796363        -2.120995
 H         2.171823         1.919890        -1.100149
 H         4.362307         0.107646        -1.378443
 H         2.091985        -1.618797        -2.290233
 H         3.485057        -2.479708        -1.450951
 H         1.892242        -2.643597         1.352313
 H         4.138905        -0.668429         1.007935
