19
Iteration:   883charge 0 multiplicity 1
 C        -0.013881         0.178797         0.413162
 C         1.362596         0.040174        -0.056160
 C         2.080606         0.805131        -1.259635
 C         3.332089        -0.068573        -1.156886
 C         2.761355        -1.516889        -1.483602
 C         2.179303        -1.370574        -0.091321
 O         1.533272        -2.448585         0.679990
 C         3.262958        -0.476380         0.396453
 O         2.312641         0.383633         1.077702
 H        -0.173705        -0.601933         1.210014
 H        -0.230858         1.246152         0.475880
 H        -0.869722        -0.001037        -0.509758
 H         1.471681         1.027514        -2.149703
 H         2.234999         1.788857        -0.814051
 H         4.346350         0.301984        -1.514007
 H         2.145489        -1.501851        -2.361382
 H         3.567464        -2.371327        -1.572327
 H         2.047865        -3.302166         0.420706
 H         4.274433        -0.809869         0.894406
