19
Iteration:   235
 C        -0.130825         0.165698         0.397158
 C         1.399239         0.056471         0.028207
 C         2.073033         0.760675        -1.174431
 C         3.342515        -0.145232        -1.070447
 C         2.692240        -1.484366        -1.474019
 C         2.145936        -1.379293        -0.060826
 O         1.679966        -2.536346         0.446835
 C         3.237985        -0.458129         0.410045
 O         2.411061         0.521584         1.070803
 H        -0.477260        -0.478235         1.201519
 H        -0.564634         1.149762         0.545208
 H        -0.632826        -0.372294        -0.464122
 H         1.715179         0.556257        -2.261146
 H         2.255439         1.840938        -1.081411
 H         4.349741         0.151242        -1.630770
 H         2.211246        -1.538555        -2.447323
 H         3.469441        -2.279309        -1.536317
 H         0.927586        -2.449123         1.038681
 H         4.110907        -0.697064         1.026454
