19
Iteration:   104
 C        -0.087568         0.157211         0.309873
 C         1.387258         0.072569        -0.015635
 C         2.021173         0.730803        -1.206511
 C         3.409788        -0.091240        -1.087856
 C         2.798543        -1.459637        -1.479386
 C         2.059969        -1.358547        -0.144827
 O         1.740853        -2.484198         0.606027
 C         3.174839        -0.477435         0.410539
 O         2.354102         0.428431         1.136847
 H        -0.369604        -0.519724         1.137704
 H        -0.324248         1.228409         0.546914
 H        -0.569430        -0.128752        -0.681883
 H         1.519114         0.523847        -2.265455
 H         2.153298         1.834118        -0.997422
 H         4.452234         0.275193        -1.425448
 H         2.125714        -1.478232        -2.361886
 H         3.493078        -2.338973        -1.443043
 H         0.745898        -2.674685         0.500610
 H         4.030184        -0.876626         1.016696
