19
Iteration:  3205charge 0 multiplicity 1
 C        -0.018802         0.155031         0.424852
 C         1.401291         0.037302         0.005711
 C         2.147480         0.757088        -1.220308
 C         3.390271        -0.117263        -1.145536
 C         2.840321        -1.491106        -1.461746
 C         2.038090        -1.367759        -0.106821
 O         1.481973        -2.483951         0.587896
 C         3.234358        -0.413189         0.421714
 O         2.305988         0.454178         1.066948
 H        -0.099383        -0.406002         1.431479
 H        -0.347661         1.122392         0.564084
 H        -0.575522        -0.233739        -0.384946
 H         1.686089         0.659594        -2.263544
 H         2.084903         1.876313        -1.102051
 H         4.282459         0.394515        -1.701602
 H         2.405289        -1.558254        -2.472383
 H         3.702186        -2.158943        -1.148024
 H         1.654072        -3.300090         0.019744
 H         4.131352        -0.801541         0.912375
