19
Iteration:   545
 C         0.003650         0.201141         0.341295
 C         1.402475         0.010191         0.024778
 C         1.970662         0.751326        -1.196114
 C         3.286565        -0.092862        -1.155803
 C         2.730612        -1.445664        -1.490504
 C         2.163056        -1.341444        -0.060821
 O         1.546382        -2.502509         0.527881
 C         3.240773        -0.489657         0.405304
 O         2.442360         0.446372         1.105077
 H        -0.414309        -0.597688         0.992750
 H        -0.389337         1.171785         0.675962
 H        -0.488171        -0.168583        -0.530862
 H         1.599446         0.406122        -2.165371
 H         2.232952         1.751719        -1.008200
 H         4.118248         0.249516        -1.655126
 H         2.064564        -1.488079        -2.348354
 H         3.512841        -2.246644        -1.435577
 H         2.115287        -2.689809         1.257270
 H         4.188051        -0.767948         1.012631
