19
Iteration:  4170
 C        -0.122648         0.351145         0.355374
 C         1.335901         0.060185        -0.092471
 C         2.076925         0.754290        -1.285130
 C         3.420676        -0.130481        -1.137149
 C         2.894303        -1.507266        -1.390283
 C         2.178195        -1.420733        -0.097148
 O         1.539439        -2.536446         0.551246
 C         3.240932        -0.446815         0.524464
 O         2.265808         0.404350         1.081285
 H        -0.379932        -0.480129         1.072037
 H         0.021874         1.249743         1.039390
 H        -0.869123         0.671290        -0.382981
 H         1.565938         0.522807        -2.199493
 H         2.313261         1.822217        -1.105636
 H         4.269320         0.394231        -1.648686
 H         2.284739        -1.564649        -2.251718
 H         3.606935        -2.310290        -1.610196
 H         1.985878        -3.371784         0.660113
 H         3.954465        -0.909194         1.115631
