19
Iteration:   452charge 0 multiplicity 1
 C        -0.078672         0.237731         0.313677
 C         1.417194         0.088673         0.104689
 C         2.010560         0.791938        -1.083185
 C         3.229371        -0.086957        -1.278736
 C         2.828803        -1.553370        -1.505981
 C         2.158482        -1.425508        -0.082139
 O         1.617038        -2.578335         0.504598
 C         3.270273        -0.455622         0.406795
 O         2.438747         0.480570         1.127558
 H        -0.525750        -0.321846         1.142479
 H        -0.259260         1.298153         0.574669
 H        -0.669451        -0.255791        -0.528478
 H         1.373449         0.630363        -1.926558
 H         2.194511         1.834884        -0.828934
 H         4.205161         0.354392        -1.871843
 H         2.192227        -1.887187        -2.395606
 H         3.610487        -2.282246        -1.221123
 H         0.745710        -2.283342         0.941840
 H         4.152877        -0.852141         0.838164
