19
Iteration:  2814charge 0 multiplicity 1
 C         0.037270         0.161763         0.384298
 C         1.407322         0.027201         0.006003
 C         2.093603         0.815084        -1.177959
 C         3.379223        -0.137509        -1.100196
 C         2.703593        -1.478275        -1.460954
 C         2.089948        -1.374131        -0.130820
 O         1.590395        -2.502413         0.543388
 C         3.226207        -0.485764         0.401663
 O         2.281529         0.453646         1.030281
 H        -0.272919        -0.548150         1.197647
 H        -0.108104         1.273991         0.587301
 H        -0.601459        -0.159478        -0.449632
 H         1.658291         0.721639        -2.204770
 H         2.322549         1.875831        -0.936292
 H         4.245429         0.155430        -1.725496
 H         2.127983        -1.511445        -2.357047
 H         3.352687        -2.430670        -1.511678
 H         2.044050        -2.311402         1.418444
 H         3.964581        -0.791850         1.075501
