19
Iteration:  3813charge 0 multiplicity 1
 C        -0.036058         0.176602         0.285360
 C         1.440874        -0.003759        -0.016898
 C         2.124906         0.880249        -1.219455
 C         3.390346        -0.114514        -1.086927
 C         2.824636        -1.505471        -1.426860
 C         2.065939        -1.406388        -0.071993
 O         1.446726        -2.416053         0.587385
 C         3.304242        -0.431665         0.426218
 O         2.291203         0.374750         1.046150
 H        -0.184324        -0.312746         1.365254
 H        -0.580139         1.122144         0.354238
 H        -0.617669        -0.516543        -0.351382
 H         1.608468         0.562046        -2.070190
 H         2.237371         1.863118        -0.947551
 H         4.222283         0.481368        -1.632097
 H         2.380037        -1.565707        -2.473347
 H         3.491333        -2.317577        -1.289476
 H         1.989564        -3.292165         0.531759
 H         4.195381        -0.663144         1.044847
