19
Iteration:  4061charge 0 multiplicity 1
 C        -0.121221         0.180258         0.259601
 C         1.429127         0.039726         0.056608
 C         2.091203         0.779164        -1.202797
 C         3.449044        -0.070540        -1.084967
 C         2.845946        -1.521764        -1.505143
 C         2.092073        -1.419721        -0.106265
 O         1.445938        -2.400029         0.580254
 C         3.271363        -0.517283         0.411597
 O         2.337729         0.411914         1.125302
 H        -0.395598        -0.028035         1.320564
 H        -0.584546         1.181493        -0.028137
 H        -0.733450        -0.538534        -0.389385
 H         1.581856         0.899911        -2.193476
 H         2.114435         1.909847        -0.895419
 H         4.360746         0.336191        -1.602345
 H         2.240385        -1.618905        -2.449853
 H         3.707502        -2.294064        -1.429420
 H         2.136788        -3.040913         0.993808
 H         4.271589        -0.798408         0.787131
