19
Iteration:  2479charge 0 multiplicity 1
 C        -0.028084         0.309183         0.329299
 C         1.429889         0.045100         0.041860
 C         1.991707         0.729872        -1.105503
 C         3.283162        -0.082541        -1.151903
 C         2.757982        -1.536742        -1.489913
 C         2.139310        -1.454782        -0.071785
 O         1.496267        -2.484618         0.559045
 C         3.376433        -0.435889         0.358061
 O         2.365625         0.424484         1.115732
 H        -0.541968         0.051840         1.288037
 H        -0.400190         1.336506         0.017897
 H        -0.407108        -0.443812        -0.299041
 H         1.575113         0.581820        -2.111173
 H         2.112636         1.835827        -1.101129
 H         4.220599         0.268379        -1.737783
 H         2.065079        -1.729764        -2.348054
 H         3.559636        -2.243601        -1.336799
 H         2.183394        -3.184978         0.534201
 H         4.367436        -0.564006         0.724928
