19
Iteration:  4248charge 0 multiplicity 1
 C         0.013198         0.068128         0.232163
 C         1.433326         0.002470         0.014431
 C         2.104286         0.784697        -1.107220
 C         3.433606        -0.114062        -1.162782
 C         2.822038        -1.490059        -1.487959
 C         2.072887        -1.354640        -0.129946
 O         1.338364        -2.317932         0.600342
 C         3.298402        -0.444500         0.403618
 O         2.317250         0.390309         1.139903
 H        -0.072481        -0.256810         1.328642
 H        -0.329444         1.023064        -0.118021
 H        -0.454267        -0.742589        -0.236002
 H         1.730360         0.742543        -2.095770
 H         1.975103         1.817804        -0.832304
 H         4.480056         0.185652        -1.508234
 H         2.146064        -1.491834        -2.304555
 H         3.596745        -2.188447        -1.519395
 H         2.002006        -3.065749         0.786425
 H         4.225768        -0.763086         0.852393
