19
Iteration:  3603
 C        -0.014203         0.189985         0.375842
 C         1.404836         0.087838        -0.045132
 C         2.100353         0.820299        -1.255308
 C         3.327191        -0.077890        -1.163478
 C         2.896910        -1.461474        -1.467740
 C         2.092678        -1.394260        -0.071987
 O         1.534090        -2.495516         0.624397
 C         3.240641        -0.485209         0.445135
 O         2.291964         0.405373         1.073371
 H        -0.008127        -0.281124         1.347843
 H        -0.433931         1.277949         0.507245
 H        -0.703355        -0.324618        -0.417898
 H         1.535444         0.535803        -2.112196
 H         2.532425         1.795387        -0.928684
 H         4.361154         0.129109        -1.476862
 H         2.302252        -1.568725        -2.377502
 H         3.613758        -2.377538        -1.309860
 H         0.945835        -3.052044         0.058533
 H         3.990186        -1.001889         1.081136
