19
Iteration:  2818
 C         0.017180         0.145025         0.393568
 C         1.399540         0.022299        -0.019632
 C         2.099514         0.846830        -1.175747
 C         3.358864        -0.152992        -1.119484
 C         2.726099        -1.492278        -1.490962
 C         2.098508        -1.353694        -0.074761
 O         1.586489        -2.475857         0.538501
 C         3.246512        -0.492419         0.422437
 O         2.287564         0.435658         1.020904
 H        -0.171009        -0.492749         1.237082
 H        -0.252069         1.233998         0.565022
 H        -0.581421        -0.078719        -0.471280
 H         1.695072         0.576007        -2.131018
 H         2.377314         1.864272        -0.864913
 H         4.103222         0.277084        -1.751127
 H         2.142812        -1.609484        -2.455798
 H         3.374979        -2.330098        -1.483980
 H         1.891868        -2.311097         1.427619
 H         4.010663        -0.924600         1.089295
