19
Iteration:   840charge 0 multiplicity 1
 C        -0.078238         0.213266         0.340858
 C         1.429830         0.019122         0.064630
 C         1.943864         0.753094        -1.275703
 C         3.339224        -0.035561        -1.120726
 C         2.833470        -1.547687        -1.473207
 C         2.051591        -1.387222        -0.036155
 O         1.531197        -2.435265         0.577510
 C         3.289183        -0.457688         0.359855
 O         2.488569         0.433893         1.144404
 H        -0.481558        -0.561956         1.076471
 H        -0.354332         1.220446         0.705894
 H        -0.803720        -0.141044        -0.633146
 H         1.525070         0.489971        -2.245333
 H         1.998653         1.814908        -1.270518
 H         4.287821         0.460412        -1.539116
 H         2.115969        -1.737406        -2.238770
 H         3.570678        -2.368900        -1.263789
 H         1.815589        -3.213648         0.003837
 H         4.240321        -0.786216         0.889844
