19
Iteration:  2961charge 0 multiplicity 1
 C        -0.085805         0.242219         0.264249
 C         1.464999        -0.015876         0.105955
 C         1.992683         0.704513        -1.240872
 C         3.346049        -0.054076        -1.204109
 C         2.839215        -1.464623        -1.547598
 C         2.106833        -1.396463        -0.066789
 O         1.460806        -2.416800         0.612721
 C         3.316572        -0.473589         0.388690
 O         2.395167         0.365336         1.186279
 H        -0.429764        -0.462917         1.052680
 H        -0.129666         1.317263         0.702884
 H        -0.714457         0.301210        -0.713550
 H         1.474788         0.312148        -2.160827
 H         2.095376         1.749851        -0.926151
 H         4.155975         0.522123        -1.724860
 H         2.130500        -1.666471        -2.475431
 H         3.550085        -2.272873        -1.766304
 H         2.031073        -2.876146         1.211474
 H         4.305448        -0.771145         0.968739
