19
Iteration:  3394
 C         0.059092         0.341679         0.390868
 C         1.390094        -0.011669        -0.003810
 C         2.033747         0.767014        -1.177315
 C         3.310533        -0.088093        -1.113138
 C         2.822840        -1.511794        -1.521839
 C         2.074291        -1.415034        -0.144950
 O         1.711008        -2.531830         0.531288
 C         3.154634        -0.552878         0.483009
 O         2.276110         0.406126         1.064852
 H        -0.094138         0.043364         1.347334
 H         0.002737         1.465693         0.486492
 H        -0.741772         0.232359        -0.339006
 H         1.563095         0.583030        -2.172389
 H         2.130633         1.926089        -1.126800
 H         4.257436         0.327488        -1.294550
 H         2.175742        -1.598369        -2.350583
 H         3.728745        -2.219702        -1.300346
 H         0.842151        -2.392961         0.809510
 H         4.135445        -0.882025         0.787394
