19
Iteration:  1839charge 0 multiplicity 1
 C         0.071707         0.274394         0.636665
 C         1.466295         0.145095         0.014344
 C         2.007166         0.764337        -1.194570
 C         3.339146        -0.096249        -1.194360
 C         2.658104        -1.538887        -1.539610
 C         2.014224        -1.390005        -0.117636
 O         1.621399        -2.530818         0.549234
 C         3.237298        -0.547821         0.363619
 O         2.450971         0.432310         1.014417
 H        -0.131179        -0.293065         1.514239
 H        -0.132170         1.307064         0.942095
 H        -0.644691        -0.139512         0.028518
 H         1.489605         0.765503        -2.098197
 H         2.156208         1.827672        -1.029389
 H         4.212890         0.235155        -1.763187
 H         2.151525        -1.586379        -2.553688
 H         3.473273        -2.337131        -1.632182
 H         0.644993        -2.751507         0.386664
 H         4.037578        -0.947362         0.905006
