19
Iteration:  4464
 C         0.009605         0.373773         0.393647
 C         1.354892         0.046587        -0.079846
 C         2.095696         0.782235        -1.258733
 C         3.374850        -0.072821        -1.046006
 C         2.818735        -1.512489        -1.457126
 C         2.111285        -1.393827        -0.110408
 O         1.614267        -2.596687         0.602632
 C         3.200074        -0.519741         0.448712
 O         2.266452         0.356250         1.039913
 H        -0.008112         0.297221         1.508324
 H        -0.001528         1.466549         0.374034
 H        -0.837460        -0.108710         0.027345
 H         1.617971         0.764367        -2.278248
 H         2.265939         1.924855        -1.076726
 H         4.317483         0.375599        -1.450804
 H         2.265622        -1.469454        -2.347331
 H         3.637725        -2.300325        -1.311765
 H         0.921399        -2.951101         0.076657
 H         4.081116        -0.772092         0.858054
