19
Iteration:  3172
 C        -0.008814         0.093254         0.357259
 C         1.415664         0.071425         0.007656
 C         2.024799         0.775160        -1.217593
 C         3.361820        -0.101682        -1.122069
 C         2.838741        -1.505092        -1.509591
 C         2.188126        -1.411995        -0.068773
 O         1.390339        -2.359890         0.582532
 C         3.280922        -0.448735         0.454162
 O         2.336556         0.426056         1.067009
 H        -0.219788        -0.712586         1.125041
 H        -0.311091         0.975087         0.829316
 H        -0.633589        -0.047336        -0.487969
 H         1.796035         0.452376        -2.209684
 H         2.240618         1.796254        -0.987749
 H         4.295110         0.359480        -1.583664
 H         2.273179        -1.627478        -2.388408
 H         3.675015        -2.225414        -1.632803
 H         1.694928        -3.238788         0.586479
 H         4.269412        -0.614392         0.889127
