19
Iteration:  3818charge 0 multiplicity 1
 C        -0.045451         0.184723         0.309967
 C         1.452439         0.036077        -0.038228
 C         2.083234         0.842064        -1.216444
 C         3.369858        -0.094088        -1.110081
 C         2.843322        -1.500986        -1.444768
 C         2.105458        -1.418328        -0.071557
 O         1.452866        -2.405809         0.580434
 C         3.299787        -0.482814         0.431370
 O         2.300491         0.364598         1.066534
 H        -0.162315        -0.149124         1.280656
 H        -0.593162         1.147050         0.245440
 H        -0.590280        -0.407996        -0.438228
 H         1.489738         0.697656        -2.203227
 H         2.037742         1.963533        -0.854803
 H         4.293346         0.292117        -1.469061
 H         2.376027        -1.703938        -2.422261
 H         3.671980        -2.286714        -1.304634
 H         1.974598        -3.164423         0.651497
 H         4.074069        -0.690326         1.181186
