19
Iteration:  3385charge 0 multiplicity 1
 C        -0.010731         0.360772         0.413903
 C         1.369225         0.035501        -0.050087
 C         2.056510         0.772927        -1.216904
 C         3.338953        -0.018462        -1.162880
 C         2.791950        -1.489413        -1.463698
 C         2.172037        -1.469127        -0.132251
 O         1.660742        -2.574962         0.551725
 C         3.173397        -0.558718         0.474426
 O         2.306120         0.418708         1.072725
 H        -0.224806        -0.171406         1.294862
 H         0.056664         1.453761         0.630026
 H        -0.741595         0.078274        -0.413382
 H         1.323321         0.540546        -2.050808
 H         2.195838         1.878714        -0.916901
 H         4.296947         0.205023        -1.546991
 H         2.401375        -1.571656        -2.480389
 H         3.625100        -2.298388        -1.460924
 H         0.787255        -2.456659         0.825441
 H         4.052043        -0.930647         1.116308
