19
Iteration:  1567
 C         0.005539         0.193235         0.592550
 C         1.417044         0.085590         0.073393
 C         2.018240         0.754591        -1.149268
 C         3.389388        -0.179228        -1.209520
 C         2.613210        -1.520067        -1.533698
 C         2.056700        -1.355061        -0.113808
 O         1.455029        -2.394109         0.521742
 C         3.278052        -0.501989         0.262498
 O         2.529739         0.443934         1.058258
 H         0.032862        -0.663739         1.299633
 H        -0.135438         1.155492         1.164519
 H        -0.795831         0.176192        -0.147628
 H         1.630656         0.528497        -2.196762
 H         2.221122         1.873903        -0.982729
 H         4.307116         0.219568        -1.861924
 H         2.061404        -1.496859        -2.403590
 H         3.254143        -2.375768        -1.324494
 H         2.120447        -3.085070         0.729453
 H         4.139967        -1.012039         0.715674
