19
Iteration:  3659charge 0 multiplicity 1
 C        -0.030501         0.196677         0.221750
 C         1.462496        -0.010411        -0.013450
 C         2.086871         0.785789        -1.178889
 C         3.325122         0.003210        -1.179805
 C         2.785083        -1.489168        -1.476113
 C         2.111706        -1.393938        -0.084393
 O         1.539986        -2.522487         0.584032
 C         3.227074        -0.455338         0.461427
 O         2.375414         0.396688         1.137010
 H        -0.300004        -0.340156         1.184028
 H        -0.371547         1.253945         0.242369
 H        -0.513351        -0.311183        -0.673783
 H         1.530765         0.781456        -2.078509
 H         2.155703         1.821287        -0.989951
 H         4.369343         0.116308        -1.502223
 H         2.201476        -1.798833        -2.387781
 H         3.553614        -2.271117        -1.290753
 H         0.945109        -2.324529         1.269080
 H         4.106198        -0.722839         1.025892
