19
Iteration:  1334
 C         0.038197         0.330593         0.418081
 C         1.479956         0.077331         0.068350
 C         1.954938         0.733993        -1.069034
 C         3.268662        -0.123441        -1.227901
 C         2.697663        -1.565324        -1.555364
 C         2.044050        -1.329427        -0.109666
 O         1.564802        -2.490593         0.612473
 C         3.319562        -0.517930         0.361694
 O         2.495670         0.415895         1.063542
 H        -0.306810        -0.369998         1.226112
 H        -0.259169         1.411208         0.537620
 H        -0.585434         0.050514        -0.502791
 H         1.068012         0.584937        -1.778973
 H         2.108507         1.911345        -0.993669
 H         4.042717         0.261330        -1.761785
 H         2.093560        -1.446822        -2.411253
 H         3.525483        -2.338097        -1.292990
 H         1.539841        -3.238199        -0.066005
 H         4.111898        -1.063338         0.940600
