19
Iteration:   613charge 0 multiplicity 1
 C        -0.045879         0.156132         0.476859
 C         1.296410         0.144743        -0.015887
 C         2.038482         0.822699        -1.232519
 C         3.442859        -0.150257        -1.143826
 C         2.814987        -1.532992        -1.543687
 C         2.027597        -1.438299        -0.188893
 O         1.563028        -2.473443         0.579071
 C         3.256444        -0.434901         0.421868
 O         2.372760         0.454110         1.079837
 H        -0.280500        -0.453766         1.319703
 H        -0.440379         1.176448         0.756345
 H        -0.586252        -0.301132        -0.284513
 H         1.451065         0.533370        -2.100738
 H         2.312071         1.783480        -0.820047
 H         4.412919         0.347614        -1.548739
 H         2.151277        -1.750757        -2.447134
 H         3.554454        -2.292543        -1.391356
 H         2.324497        -2.874110         0.959430
 H         4.086474        -0.823727         1.062990
