19
Iteration:   133
 C        -0.113951         0.157644         0.287287
 C         1.410532         0.067752        -0.079287
 C         2.058134         0.901575        -1.137844
 C         3.308202        -0.090225        -1.192692
 C         2.739004        -1.557519        -1.454562
 C         2.245334        -1.463893        -0.028989
 O         1.628474        -2.600247         0.624397
 C         3.253712        -0.401709         0.482971
 O         2.327935         0.498286         1.056409
 H        -0.347961        -0.586240         1.064400
 H        -0.353485         1.186196         0.630736
 H        -0.623351         0.136264        -0.604516
 H         1.667422         1.122936        -2.075244
 H         2.329833         1.810176        -0.616330
 H         4.392587         0.001947        -1.683705
 H         1.857131        -1.845653        -2.113437
 H         3.588663        -2.188492        -1.607450
 H         1.184532        -3.009935        -0.176597
 H         4.127983        -0.524826         1.113483
