19
Iteration:  2395charge 0 multiplicity 1
 C         0.004272         0.177478         0.361316
 C         1.418819         0.027564         0.040607
 C         2.032342         0.791251        -1.131623
 C         3.258241        -0.115025        -1.193471
 C         2.766368        -1.536787        -1.458209
 C         2.161819        -1.397555        -0.072548
 O         1.555831        -2.491350         0.596954
 C         3.285839        -0.442973         0.395759
 O         2.416804         0.456505         1.012195
 H        -0.282815        -0.617274         1.019341
 H        -0.193344         1.150559         0.890605
 H        -0.601934         0.200403        -0.582942
 H         1.414758         0.651488        -2.006363
 H         2.357726         1.832450        -0.925299
 H         4.219572         0.340345        -1.513994
 H         2.081015        -1.694004        -2.346231
 H         3.465888        -2.340732        -1.604436
 H         0.571758        -2.441528         0.398238
 H         4.214631        -0.737841         0.965968
