19
Iteration:    14charge 0 multiplicity 1
 C        -0.074963         0.100980         0.347411
 C         1.371018         0.114823         0.006502
 C         2.085845         0.686560        -1.272685
 C         3.419255        -0.112896        -1.054092
 C         2.745594        -1.487497        -1.465187
 C         2.017853        -1.304751        -0.139828
 O         1.671457        -2.588865         0.476683
 C         3.274393        -0.415432         0.419751
 O         2.359890         0.516203         1.190535
 H        -0.215301        -0.450909         1.325692
 H        -0.375406         1.183978         0.599881
 H        -0.728186        -0.153213        -0.437770
 H         1.557861         0.160616        -2.214596
 H         2.183676         1.802976        -1.417092
 H         4.317393         0.446780        -1.621880
 H         2.152219        -1.438542        -2.433933
 H         3.339278        -2.354547        -1.348859
 H         0.978834        -2.467752         1.189226
 H         4.161955        -0.712745         0.923578
