19
Iteration:  1884
 C         0.091826         0.261831         0.471372
 C         1.454042         0.009410         0.085108
 C         1.951446         0.817025        -1.145557
 C         3.261249        -0.116743        -1.231174
 C         2.712374        -1.459903        -1.499814
 C         2.112322        -1.402773        -0.108444
 O         1.479363        -2.492091         0.501588
 C         3.377575        -0.523822         0.319576
 O         2.459164         0.367790         1.079791
 H        -0.098684        -0.177296         1.427903
 H        -0.068653         1.300955         0.610404
 H        -0.585083        -0.323141        -0.133924
 H         1.263980         0.682484        -1.942700
 H         2.008937         1.859809        -1.087827
 H         4.006527         0.243298        -1.888450
 H         1.917703        -1.666891        -2.269518
 H         3.463600        -2.328008        -1.542581
 H         1.183398        -2.005375         1.337113
 H         4.302108        -0.788073         0.830193
