19
Iteration:  2642charge 0 multiplicity 1
 C        -0.041048         0.273522         0.307921
 C         1.413655         0.019270        -0.005560
 C         2.040633         0.759434        -1.216452
 C         3.322792        -0.057148        -1.157691
 C         2.842543        -1.483544        -1.527708
 C         2.110323        -1.447147        -0.103123
 O         1.546453        -2.411122         0.678477
 C         3.239929        -0.526182         0.446700
 O         2.326665         0.363969         1.067498
 H        -0.187532        -0.173918         1.338542
 H        -0.460967         1.335304         0.451815
 H        -0.633869        -0.278458        -0.362770
 H         1.490822         0.556528        -2.151271
 H         2.003325         1.886900        -1.187578
 H         4.411046         0.065625        -1.476685
 H         2.085918        -1.357265        -2.352284
 H         3.692019        -2.161317        -1.695363
 H         2.307454        -2.924223         0.928475
 H         4.105270        -0.818075         0.986462
