19
Iteration:  1105charge 0 multiplicity 1
 C         0.004555         0.156452         0.476529
 C         1.411759         0.062443        -0.044088
 C         1.996909         0.782169        -1.190429
 C         3.339731        -0.116965        -1.238031
 C         2.752064        -1.505467        -1.490431
 C         2.058215        -1.349834        -0.122715
 O         1.628938        -2.473063         0.562750
 C         3.285719        -0.484276         0.414476
 O         2.413748         0.412440         1.085343
 H        -0.164053        -0.137842         1.523870
 H        -0.074702         1.248136         0.817910
 H        -0.804522        -0.092479        -0.206356
 H         1.447131         0.770311        -2.101260
 H         2.153217         1.831668        -0.892810
 H         4.211028         0.202439        -1.789481
 H         2.128526        -1.831639        -2.384727
 H         3.466440        -2.424358        -1.196932
 H         0.609613        -2.452538         0.499078
 H         4.101004        -0.844067         1.034215
