19
Iteration:  2005charge 0 multiplicity 1
 C         0.026705         0.308442         0.603318
 C         1.398176         0.102882         0.066788
 C         2.032771         0.718088        -1.231935
 C         3.274898        -0.100314        -1.222037
 C         2.844826        -1.539039        -1.549410
 C         2.047338        -1.385636        -0.161423
 O         1.579860        -2.462641         0.587458
 C         3.219673        -0.547169         0.384037
 O         2.432342         0.430702         1.068184
 H        -0.172853        -0.548748         1.225067
 H        -0.112636         1.288439         1.154968
 H        -0.669798        -0.030394        -0.279822
 H         1.517705         0.497406        -2.239514
 H         2.128134         1.819541        -1.258166
 H         4.148431         0.365462        -1.777551
 H         2.210597        -1.701185        -2.521138
 H         3.776269        -2.244161        -1.403168
 H         0.657136        -2.706966         0.373211
 H         4.128935        -1.076794         0.908527
