19
Iteration:  4274
 C        -0.119880         0.122471         0.357354
 C         1.371133         0.166557        -0.029422
 C         2.133656         0.812212        -1.179108
 C         3.357492        -0.147402        -1.072047
 C         2.884138        -1.534158        -1.457352
 C         2.159794        -1.393613        -0.107848
 O         1.434971        -2.396943         0.548874
 C         3.209862        -0.539622         0.514934
 O         2.378963         0.449379         1.026503
 H        -0.197162        -0.131144         1.386881
 H        -0.549140         1.120403         0.131932
 H        -0.534189        -0.770775        -0.198154
 H         1.810435         0.705507        -2.323148
 H         2.310300         1.924536        -1.086535
 H         4.271941         0.236425        -1.535729
 H         2.108073        -1.363932        -2.303308
 H         3.716304        -2.259505        -1.630712
 H         1.862499        -3.290870         0.299996
 H         4.151109        -1.003595         1.080714
