19
Iteration:  1904
 C         0.015846         0.250068         0.475646
 C         1.402914         0.043533         0.064604
 C         2.016633         0.761802        -1.157973
 C         3.249010        -0.055843        -1.238349
 C         2.700631        -1.526221        -1.589405
 C         2.139955        -1.424523        -0.182789
 O         1.472255        -2.413619         0.618869
 C         3.300935        -0.532059         0.310914
 O         2.504743         0.338832         1.139869
 H        -0.239436        -0.164089         1.473113
 H        -0.193032         1.382782         0.514105
 H        -0.508703        -0.170285        -0.362391
 H         1.392255         0.816192        -2.005594
 H         2.064338         1.857595        -0.903112
 H         4.140032         0.370539        -1.672391
 H         2.126183        -1.475883        -2.528898
 H         3.503025        -2.333778        -1.721332
 H         1.915484        -2.576285         1.465211
 H         4.190625        -0.881495         0.750139
