19
Iteration:    69charge 0 multiplicity 1
 C        -0.023556         0.229438         0.387589
 C         1.356365        -0.044299         0.032639
 C         2.000821         0.696617        -1.226994
 C         3.376814        -0.021186        -1.197615
 C         3.000704        -1.446718        -1.478383
 C         2.165148        -1.421706        -0.166201
 O         1.523703        -2.449952         0.670862
 C         3.246608        -0.407720         0.334876
 O         2.286827         0.278456         1.135370
 H        -0.400445        -0.091922         1.402543
 H        -0.246645         1.346616         0.303691
 H        -0.679652        -0.195036        -0.340314
 H         1.341480         0.663518        -2.224797
 H         2.026173         1.792502        -0.928087
 H         4.389044         0.553016        -1.567936
 H         2.483197        -1.648590        -2.477278
 H         3.880121        -2.052220        -1.427125
 H         0.517177        -2.253302         0.620753
 H         4.183894        -0.560525         0.854621
