19
Iteration:  1573charge 0 multiplicity 1
 C        -0.009572         0.211152         0.622066
 C         1.421020         0.064621         0.035765
 C         2.029887         0.796728        -1.174487
 C         3.363218        -0.181602        -1.221202
 C         2.663701        -1.521383        -1.536424
 C         2.042892        -1.359169        -0.146491
 O         1.452051        -2.412033         0.547916
 C         3.325982        -0.526912         0.279460
 O         2.511594         0.445800         1.075906
 H        -0.179717        -0.588124         1.382206
 H        -0.079474         1.141479         1.192308
 H        -0.744535         0.160932        -0.186804
 H         1.368018         0.675103        -2.025877
 H         2.213321         1.853287        -1.215538
 H         4.205429         0.137379        -1.692367
 H         2.104255        -1.347935        -2.551691
 H         3.320844        -2.445362        -1.550292
 H         2.035618        -3.101643         0.983436
 H         4.225465        -0.985854         0.717362
