19
Iteration:  3672
 C        -0.023953         0.190291         0.220153
 C         1.390209         0.076791         0.007791
 C         2.033390         0.860112        -1.186051
 C         3.349489        -0.163628        -1.079968
 C         2.776369        -1.565036        -1.390850
 C         2.139440        -1.382117        -0.086561
 O         1.588285        -2.511565         0.488674
 C         3.286168        -0.495528         0.438620
 O         2.312680         0.425493         1.091707
 H        -0.421139        -0.292393         1.167037
 H        -0.195481         1.210695         0.342340
 H        -0.592476        -0.140405        -0.639371
 H         1.489069         0.684204        -2.141575
 H         2.280276         1.846565        -0.842392
 H         4.188877         0.449718        -1.544687
 H         2.088553        -1.595499        -2.325939
 H         3.579699        -2.261105        -1.481522
 H         1.494264        -2.186270         1.472441
 H         4.194280        -0.760259         0.967993
