19
Iteration:  2017charge 0 multiplicity 1
 C         0.016784         0.221409         0.618819
 C         1.412319         0.125092        -0.002453
 C         2.025215         0.780021        -1.286621
 C         3.327577        -0.115157        -1.174066
 C         2.765679        -1.492266        -1.485387
 C         2.106735        -1.410731        -0.167408
 O         1.607268        -2.479256         0.604077
 C         3.225610        -0.543245         0.352632
 O         2.388613         0.371525         1.030810
 H        -0.153816        -0.270784         1.589052
 H        -0.072845         1.305791         0.917833
 H        -0.854284         0.380509        -0.166893
 H         1.433724         0.631091        -2.303757
 H         2.303372         1.810077        -1.027867
 H         4.323704         0.247863        -1.564246
 H         2.112929        -1.712678        -2.479120
 H         3.612658        -2.331440        -1.576097
 H         0.595204        -2.466604         0.495062
 H         4.146997        -0.821919         1.030892
