19
Iteration:    75
 C        -0.066498         0.233784         0.392770
 C         1.392486         0.000134         0.023659
 C         1.980108         0.690028        -1.234279
 C         3.352703         0.001548        -1.191765
 C         3.007917        -1.437580        -1.506292
 C         2.168843        -1.401843        -0.180819
 O         1.554642        -2.409147         0.673072
 C         3.252086        -0.483468         0.380458
 O         2.278016         0.259621         1.136836
 H        -0.438599        -0.103865         1.342187
 H        -0.126883         1.295462         0.321561
 H        -0.697909        -0.265874        -0.390916
 H         1.445858         0.502835        -2.094769
 H         2.087063         1.753007        -1.133755
 H         4.159599         0.467096        -1.572610
 H         2.501896        -1.608411        -2.429881
 H         3.838694        -2.193423        -1.446187
 H         0.615557        -2.215739         0.640340
 H         4.177965        -0.642363         0.947714
