19
Iteration:   954charge 0 multiplicity 1
 C        -0.014235         0.198353         0.416579
 C         1.423297         0.012125         0.064541
 C         1.940651         0.755350        -1.197589
 C         3.363445        -0.064323        -1.159263
 C         2.789114        -1.551491        -1.481236
 C         2.117378        -1.402595        -0.138018
 O         1.548761        -2.507598         0.508364
 C         3.332468        -0.411865         0.412412
 O         2.376038         0.418237         1.061993
 H        -0.291532        -0.300144         1.392194
 H        -0.113566         1.345349         0.431499
 H        -0.727617        -0.091514        -0.398342
 H         1.541028         0.687707        -2.223011
 H         2.090355         1.852354        -0.964951
 H         4.228605         0.413401        -1.598975
 H         2.110183        -1.959704        -2.384630
 H         3.619526        -2.219408        -1.343818
 H         1.014066        -2.247330         1.337295
 H         4.244538        -0.648056         0.954204
