19
Iteration:  3229charge 0 multiplicity 1
 C        -0.084339         0.267507         0.315412
 C         1.399189         0.090170         0.022964
 C         1.966115         0.771568        -1.199262
 C         3.320816        -0.071755        -1.125243
 C         2.848688        -1.575645        -1.466251
 C         2.203058        -1.430562        -0.068075
 O         1.520391        -2.507365         0.525799
 C         3.270819        -0.510024         0.492179
 O         2.378344         0.442365         1.082415
 H        -0.239995        -0.037799         1.366897
 H        -0.245651         1.388476         0.299128
 H        -0.719419        -0.148135        -0.449972
 H         1.464125         0.818885        -2.192718
 H         2.092417         1.958896        -1.085002
 H         4.211204         0.533730        -1.479690
 H         2.171937        -1.758873        -2.237587
 H         3.721331        -2.291033        -1.280852
 H         1.792067        -3.376728         0.067597
 H         4.212239        -0.709430         0.945725
