19
Iteration:   803
 C         0.014229         0.178864         0.487892
 C         1.334730        -0.044444         0.021920
 C         2.075147         0.763598        -1.228064
 C         3.398687        -0.089024        -1.150758
 C         2.816033        -1.558772        -1.513158
 C         2.144233        -1.364318        -0.116899
 O         1.485482        -2.446237         0.560920
 C         3.255661        -0.438692         0.400464
 O         2.289676         0.471228         1.026865
 H        -0.168451        -0.306380         1.505645
 H        -0.030350         1.308918         0.695762
 H        -0.721672        -0.085444        -0.403307
 H         1.480539         0.784891        -2.155946
 H         2.269840         1.776770        -0.734105
 H         4.216744         0.358349        -1.631386
 H         2.116548        -1.688699        -2.387396
 H         3.585169        -2.379755        -1.590000
 H         2.161218        -3.203936         0.715912
 H         4.149366        -0.494525         1.100649
