19
Iteration:  4330
 C        -0.075111         0.420670         0.307123
 C         1.342763         0.083506         0.045890
 C         1.989085         0.696036        -1.169629
 C         3.328722        -0.066285        -1.070328
 C         2.932432        -1.556855        -1.474913
 C         2.274656        -1.493048        -0.151347
 O         1.470634        -2.526778         0.508344
 C         3.229326        -0.490375         0.518807
 O         2.331830         0.442872         1.060563
 H        -0.511114        -0.164035         1.069731
 H        -0.023804         1.409663         0.822036
 H        -0.614869         0.441172        -0.697487
 H         1.460914         0.303172        -2.152445
 H         2.000816         1.834966        -1.114501
 H         4.141986         0.534057        -1.325279
 H         2.454804        -1.772967        -2.483162
 H         3.671766        -2.407281        -1.470286
 H         2.044778        -3.266708         0.535155
 H         4.200989        -0.858227         0.989995
