19
Iteration:   895
 C        -0.076940         0.170524         0.398750
 C         1.383759         0.053327        -0.042377
 C         2.100799         0.793940        -1.216989
 C         3.395067        -0.111042        -1.142886
 C         2.757981        -1.432385        -1.451337
 C         2.045267        -1.367725        -0.101093
 O         1.586541        -2.426902         0.634096
 C         3.229026        -0.501931         0.361908
 O         2.349592         0.380920         1.053438
 H        -0.223270        -0.429185         1.331815
 H        -0.329418         1.150237         0.841894
 H        -0.828134        -0.290447        -0.459848
 H         1.625490         0.660241        -2.201260
 H         2.344833         1.805249        -0.993742
 H         4.320281         0.234842        -1.728325
 H         2.143798        -1.614473        -2.340266
 H         3.541731        -2.261447        -1.400867
 H         2.263838        -3.076930         0.654254
 H         4.072632        -0.858051         0.965839
