19
Iteration:   918
 C        -0.029048         0.165327         0.408092
 C         1.416475         0.091801         0.033927
 C         1.970618         0.738766        -1.211783
 C         3.362539        -0.137866        -1.106077
 C         2.822090        -1.546777        -1.591774
 C         2.128130        -1.382317        -0.094792
 O         1.526540        -2.427260         0.532428
 C         3.228435        -0.498782         0.408692
 O         2.387754         0.490779         1.117124
 H        -0.430248        -0.359723         1.280797
 H        -0.326665         1.239614         0.600009
 H        -0.551098        -0.277318        -0.608346
 H         1.249271         0.647904        -2.006320
 H         2.323792         1.705270        -1.008924
 H         4.272261         0.408085        -1.559358
 H         2.149231        -1.689038        -2.467179
 H         3.578696        -2.365615        -1.574867
 H         2.194955        -2.843429         1.191664
 H         4.052265        -0.803817         0.944612
