19
Iteration:   214charge 0 multiplicity 1
 C         0.008900         0.148793         0.416361
 C         1.444463         0.040672        -0.036308
 C         2.068335         0.821813        -1.185746
 C         3.359665        -0.053189        -1.275173
 C         2.836546        -1.545224        -1.378189
 C         2.079485        -1.381694        -0.086685
 O         1.533448        -2.592333         0.462061
 C         3.262922        -0.397944         0.431593
 O         2.274148         0.445826         1.088793
 H        -0.228543        -0.387942         1.312288
 H        -0.211996         1.173525         0.667148
 H        -0.861302        -0.241113        -0.190960
 H         1.473378         0.884872        -2.200529
 H         2.370148         1.847856        -0.872782
 H         4.350176         0.301477        -1.665056
 H         2.192179        -1.676523        -2.232382
 H         3.563954        -2.389818        -1.429642
 H         1.517589        -2.390280         1.397348
 H         4.121133        -0.546171         1.101831
