19
Iteration:  1057
 C         0.004639         0.233262         0.367971
 C         1.435288        -0.015838         0.006308
 C         2.035872         0.760692        -1.144984
 C         3.269446        -0.061511        -1.167990
 C         2.730039        -1.525081        -1.510546
 C         2.061627        -1.392847        -0.081643
 O         1.527529        -2.439221         0.542395
 C         3.269902        -0.462312         0.412850
 O         2.447050         0.408263         1.073533
 H        -0.113145        -0.476091         1.134492
 H        -0.259621         1.112129         0.845224
 H        -0.690407        -0.081876        -0.390180
 H         1.506283         0.502107        -2.160957
 H         1.977819         1.852624        -1.034925
 H         4.146208         0.338967        -1.763621
 H         2.193983        -1.511803        -2.476972
 H         3.603582        -2.313773        -1.396392
 H         2.112693        -2.581323         1.288990
 H         4.179482        -0.945048         0.854993
