19
Iteration:  4869
 C        -0.061577         0.229793         0.482583
 C         1.483239         0.103647         0.012237
 C         2.140593         0.860342        -1.136600
 C         3.362537        -0.156703        -1.221037
 C         2.733695        -1.529165        -1.481965
 C         2.108599        -1.362343        -0.152466
 O         1.471086        -2.368242         0.561026
 C         3.247003        -0.570258         0.394576
 O         2.384872         0.334477         1.092553
 H        -0.301842        -0.780499         0.831383
 H        -0.061734         0.896230         1.350369
 H        -0.697729         0.634427        -0.403825
 H         1.733319         0.665616        -2.082414
 H         2.273704         1.914195        -1.196056
 H         4.411918         0.104406        -1.416179
 H         2.003162        -1.551285        -2.359844
 H         3.480349        -2.327533        -1.663514
 H         1.242878        -3.118362        -0.021956
 H         3.985881        -0.960799         1.081973
