19
Iteration:  3614
 C         0.010268         0.159475         0.343721
 C         1.401937         0.032484        -0.059837
 C         2.091751         0.749731        -1.215409
 C         3.410383        -0.076540        -1.120592
 C         2.815911        -1.485108        -1.435065
 C         2.073590        -1.346419        -0.147312
 O         1.560012        -2.431790         0.619909
 C         3.209367        -0.538097         0.444300
 O         2.306610         0.416753         1.124100
 H        -0.099493        -0.263508         1.347904
 H        -0.262126         1.277103         0.363135
 H        -0.725969        -0.456023        -0.301817
 H         1.692556         0.770536        -2.193190
 H         2.167579         1.867378        -1.114188
 H         4.198596         0.395171        -1.725250
 H         2.320178        -1.626123        -2.397919
 H         3.724418        -2.190948        -1.396187
 H         0.802366        -2.719003         0.162425
 H         4.093016        -0.924718         0.982519
