19
Iteration:  3204
 C        -0.022730         0.142273         0.425718
 C         1.399237         0.036490         0.005618
 C         2.133492         0.756397        -1.224625
 C         3.400153        -0.111411        -1.146265
 C         2.839966        -1.496622        -1.467786
 C         2.043900        -1.356374        -0.105278
 O         1.483342        -2.469699         0.585514
 C         3.237360        -0.427735         0.434219
 O         2.305858         0.459068         1.064406
 H        -0.100784        -0.393500         1.432540
 H        -0.318315         1.104794         0.583809
 H        -0.632432        -0.220163        -0.381077
 H         1.720604         0.635134        -2.288714
 H         2.138289         1.857453        -1.066327
 H         4.286608         0.416733        -1.675516
 H         2.364755        -1.591321        -2.518038
 H         3.656446        -2.178954        -1.153830
 H         1.651174        -3.319895         0.013408
 H         4.157201        -0.816281         0.942539
