19
Iteration:   685
 C        -0.118929         0.179673         0.417365
 C         1.395638         0.076701         0.051488
 C         1.989465         0.767977        -1.234025
 C         3.376151        -0.013195        -1.160094
 C         2.814007        -1.550984        -1.447506
 C         2.101554        -1.352732        -0.153581
 O         1.587202        -2.378076         0.587366
 C         3.247246        -0.532199         0.425115
 O         2.401327         0.393003         1.051910
 H        -0.485264        -0.469055         1.284708
 H        -0.274319         1.193839         0.741609
 H        -0.767143        -0.192028        -0.447350
 H         1.569572         0.456607        -2.167986
 H         2.124780         1.788153        -0.940056
 H         4.292669         0.161952        -1.594384
 H         2.304495        -1.708103        -2.361175
 H         3.669787        -2.317183        -1.338205
 H         1.871923        -3.178900         0.213617
 H         4.148999        -1.030944         0.939087
