19
Iteration:  3524charge 0 multiplicity 1
 C        -0.066917         0.286131         0.333181
 C         1.340273         0.018162        -0.012592
 C         2.024642         0.741915        -1.160787
 C         3.382418        -0.078559        -1.147894
 C         2.860960        -1.512587        -1.499165
 C         2.121993        -1.424815        -0.092053
 O         1.506440        -2.432743         0.559150
 C         3.238775        -0.500157         0.439358
 O         2.368595         0.387955         1.078991
 H        -0.636477        -0.484451         0.947117
 H        -0.022187         1.335024         0.845245
 H        -0.812335         0.242474        -0.528359
 H         1.523801         0.736958        -2.131034
 H         2.278819         1.793210        -0.766872
 H         4.338639         0.226230        -1.523104
 H         2.287046        -1.672895        -2.429514
 H         3.719445        -2.364891        -1.510226
 H         2.206203        -2.974283         0.949566
 H         4.218074        -0.647138         0.956419
