19
Iteration:  2676
 C        -0.065720         0.102284         0.298378
 C         1.414592         0.023946         0.047661
 C         2.013276         0.775614        -1.192031
 C         3.288287        -0.072175        -1.133953
 C         2.854966        -1.595512        -1.432926
 C         2.166686        -1.400794        -0.080177
 O         1.408460        -2.319444         0.560789
 C         3.337562        -0.430587         0.395880
 O         2.434409         0.438825         1.102396
 H        -0.215668        -0.454106         1.207668
 H        -0.452046         1.193621         0.309649
 H        -0.583029        -0.474961        -0.437801
 H         1.305634         0.577126        -1.983808
 H         2.150417         1.851417        -0.909852
 H         4.168142         0.087384        -1.715564
 H         2.174702        -1.749030        -2.359397
 H         3.672814        -2.216127        -1.621444
 H         1.835038        -3.152626         0.505710
 H         4.274554        -0.561305         0.906718
