19
Iteration:  2668charge 0 multiplicity 1
 C        -0.048518         0.126214         0.286617
 C         1.405012        -0.025265         0.023322
 C         1.996786         0.720836        -1.127410
 C         3.326856        -0.105383        -1.162746
 C         2.825144        -1.524583        -1.503449
 C         2.166182        -1.392013        -0.092179
 O         1.414058        -2.309323         0.597081
 C         3.314093        -0.400319         0.378716
 O         2.434909         0.422636         1.124576
 H        -0.346174        -0.303446         1.229279
 H        -0.341060         1.189799         0.304207
 H        -0.680427        -0.483065        -0.455786
 H         1.453076         0.570951        -2.082338
 H         1.979977         1.786540        -0.996254
 H         4.310879         0.172849        -1.414665
 H         2.250058        -1.747085        -2.428547
 H         3.623030        -2.271554        -1.401704
 H         1.905101        -3.115185         0.594551
 H         4.366415        -0.562900         0.816138
