19
Iteration:  1341charge 0 multiplicity 1
 C         0.024283         0.274669         0.431223
 C         1.480013         0.128666         0.114068
 C         2.003948         0.714577        -1.152777
 C         3.280132        -0.083561        -1.217642
 C         2.673379        -1.541381        -1.496101
 C         2.042695        -1.360209        -0.148481
 O         1.563672        -2.454426         0.598099
 C         3.315659        -0.571785         0.322079
 O         2.475054         0.434791         1.118798
 H        -0.412771        -0.294788         1.257758
 H        -0.289664         1.269195         0.802904
 H        -0.430253        -0.028522        -0.604436
 H         1.216109         0.561992        -1.925576
 H         2.237761         1.744977        -1.168181
 H         4.184628         0.398620        -1.740085
 H         1.852654        -1.759345        -2.262788
 H         3.367548        -2.357288        -1.534992
 H         1.592110        -3.150344        -0.052950
 H         4.162100        -0.961554         0.878973
