19
Iteration:  3123
 C        -0.129036         0.291933         0.316813
 C         1.412259         0.084661         0.032200
 C         2.090825         0.801909        -1.232215
 C         3.337769        -0.090451        -1.115549
 C         2.791085        -1.556419        -1.503283
 C         2.149490        -1.442249        -0.149384
 O         1.605459        -2.513943         0.557020
 C         3.283022        -0.484631         0.499537
 O         2.303566         0.393753         1.082393
 H        -0.543226        -0.415970         1.018374
 H        -0.385597         1.371572         0.685049
 H        -0.798739         0.099512        -0.561459
 H         1.386763         0.518384        -2.063874
 H         2.332852         1.883841        -0.939626
 H         4.267548         0.333704        -1.428747
 H         2.118200        -1.662929        -2.469967
 H         3.545499        -2.298490        -1.762132
 H         2.004770        -2.494273         1.504401
 H         4.236954        -0.837903         0.949169
