19
Iteration:  4795
 C         0.004139         0.476393         0.420262
 C         1.456114         0.034519         0.069134
 C         2.050479         0.766649        -1.138977
 C         3.409617        -0.062773        -1.151631
 C         2.762700        -1.470177        -1.537744
 C         2.059815        -1.400012        -0.118280
 O         1.633951        -2.569012         0.481137
 C         3.169464        -0.599732         0.400821
 O         2.336667         0.308389         1.123649
 H        -0.268918         0.173957         1.403286
 H         0.015072         1.540075         0.361772
 H        -0.671586         0.048161        -0.391834
 H         1.276804         0.678216        -1.986072
 H         2.276902         1.897634        -1.118923
 H         4.265534         0.128852        -1.744448
 H         2.302257        -1.687911        -2.537234
 H         3.528431        -2.325222        -1.361357
 H         0.659515        -2.473393         0.761070
 H         4.078458        -0.923403         0.956990
