19
Iteration:  2331charge 0 multiplicity 1
 C        -0.038202         0.269819         0.524540
 C         1.406212        -0.036453        -0.027927
 C         2.132680         0.760668        -1.204133
 C         3.365326        -0.119811        -1.187759
 C         2.733714        -1.480558        -1.543621
 C         2.112858        -1.425520        -0.106455
 O         1.508530        -2.494292         0.601304
 C         3.216436        -0.408737         0.366803
 O         2.352844         0.403105         1.042839
 H        -0.291021        -0.390548         1.283419
 H        -0.047543         1.282202         0.821172
 H        -0.798559         0.205783        -0.277399
 H         1.667206         0.794851        -2.176001
 H         2.257658         1.821768        -1.071419
 H         4.230012         0.318570        -1.617837
 H         2.062298        -1.571945        -2.400678
 H         3.471596        -2.304203        -1.391783
 H         2.285703        -2.851717         1.033473
 H         4.160248        -0.727366         0.970957
