19
Iteration:   681charge 0 multiplicity 1
 C        -0.163814         0.168255         0.440261
 C         1.435415         0.089307         0.054072
 C         1.990530         0.757922        -1.226335
 C         3.358919        -0.037644        -1.161644
 C         2.835655        -1.539988        -1.454504
 C         2.125705        -1.352951        -0.155921
 O         1.559425        -2.388609         0.588568
 C         3.268597        -0.552239         0.384190
 O         2.393867         0.415328         1.077102
 H        -0.597426        -0.372066         1.229526
 H        -0.244021         1.217916         0.694190
 H        -0.689154        -0.143763        -0.423651
 H         1.507381         0.432018        -2.138194
 H         2.131390         1.830663        -0.983242
 H         4.375171         0.202922        -1.652069
 H         2.353639        -1.852419        -2.423101
 H         3.682064        -2.112469        -1.238050
 H         1.881959        -3.255971         0.160225
 H         4.067150        -0.922304         0.907435
