19
Iteration:  2325
 C        -0.053935         0.252188         0.529884
 C         1.388422         0.007974        -0.064731
 C         2.135202         0.748329        -1.166559
 C         3.358659        -0.114261        -1.197051
 C         2.765515        -1.456255        -1.504318
 C         2.120151        -1.436668        -0.109018
 O         1.508076        -2.501648         0.580215
 C         3.218079        -0.458974         0.390868
 O         2.364059         0.405238         1.010592
 H        -0.395729        -0.324401         1.491501
 H        -0.030930         1.369755         0.743889
 H        -0.859474         0.216142        -0.236886
 H         1.608693         0.671098        -2.165119
 H         2.399411         1.800827        -0.905949
 H         4.188302         0.382086        -1.766945
 H         2.094206        -1.610833        -2.360152
 H         3.372356        -2.383920        -1.538682
 H         2.236802        -2.748118         1.244146
 H         4.176531        -0.508873         0.828043
