19
Iteration:   903
 C        -0.093377         0.170040         0.405132
 C         1.391182         0.056026         0.049296
 C         2.121549         0.768780        -1.171360
 C         3.335511        -0.099556        -1.180526
 C         2.753107        -1.513594        -1.494795
 C         2.053196        -1.337365        -0.212406
 O         1.584205        -2.424693         0.609114
 C         3.228239        -0.501140         0.443633
 O         2.372006         0.440450         1.054842
 H        -0.114525        -0.529026         1.262538
 H        -0.433415         1.154870         0.623068
 H        -0.740111        -0.156765        -0.390931
 H         1.807944         0.449628        -2.197518
 H         2.054782         1.877129        -1.035210
 H         4.273675         0.204225        -1.554450
 H         2.336675        -1.631357        -2.489305
 H         3.488868        -2.396559        -1.484295
 H         2.345658        -2.964908         0.829601
 H         4.136335        -0.934162         1.087074
