19
Iteration:   797charge 0 multiplicity 1
 C        -0.017645         0.176208         0.513948
 C         1.355614        -0.059189        -0.050448
 C         2.080838         0.765250        -1.194021
 C         3.389277        -0.062164        -1.139367
 C         2.774604        -1.583266        -1.511373
 C         2.184578        -1.393542        -0.158366
 O         1.477120        -2.436382         0.569701
 C         3.266867        -0.375213         0.399658
 O         2.297455         0.444871         1.039148
 H        -0.404857        -0.196135         1.452619
 H         0.152693         1.224584         0.632215
 H        -0.764625        -0.133387        -0.258373
 H         1.596513         0.765097        -2.174670
 H         2.150774         1.756590        -0.812143
 H         4.385654         0.300954        -1.550831
 H         2.113765        -1.562353        -2.356617
 H         3.575994        -2.327399        -1.451073
 H         2.106665        -3.122075         0.854079
 H         4.210293        -0.622446         0.939193
