19
Iteration:  3262charge 0 multiplicity 1
 C        -0.036077         0.316029         0.279184
 C         1.407267         0.068463         0.066524
 C         2.059815         0.735393        -1.230714
 C         3.381974        -0.080999        -1.112893
 C         2.788800        -1.478197        -1.499368
 C         2.102242        -1.425118        -0.085155
 O         1.534480        -2.551647         0.585321
 C         3.285336        -0.449349         0.382197
 O         2.304514         0.376568         1.142303
 H        -0.347567        -0.127351         1.228429
 H        -0.127939         1.447142         0.334707
 H        -0.668635        -0.141726        -0.470609
 H         1.368709         0.537992        -2.128134
 H         1.992396         1.880832        -0.950002
 H         4.157414         0.640430        -1.454055
 H         2.326327        -1.584649        -2.443966
 H         3.452515        -2.454087        -1.474005
 H         2.258709        -3.168343         0.623107
 H         4.221940        -0.632323         0.841571
