19
Iteration:  2191charge 0 multiplicity 1
 C         0.050163         0.265688         0.405328
 C         1.427554        -0.009236         0.089210
 C         2.033629         0.725921        -1.160885
 C         3.312789        -0.071143        -1.241123
 C         2.755937        -1.514906        -1.507599
 C         2.065431        -1.422442        -0.089484
 O         1.439877        -2.447562         0.600037
 C         3.309431        -0.467306         0.381819
 O         2.455369         0.423068         1.047028
 H        -0.396285        -0.533748         1.012136
 H         0.076260         1.208331         0.972280
 H        -0.683042         0.363017        -0.484748
 H         1.306164         0.571726        -1.989400
 H         1.855077         1.774286        -0.979294
 H         4.127421         0.453671        -1.681222
 H         2.012405        -1.606098        -2.248097
 H         3.568727        -2.276370        -1.535436
 H         1.983253        -3.260155         0.417801
 H         4.301167        -0.546356         0.978361
