19
Iteration:   407charge 0 multiplicity 1
 C        -0.036157         0.180737         0.439019
 C         1.336132         0.029195         0.022886
 C         2.079863         0.686130        -1.223434
 C         3.412270        -0.089182        -1.137395
 C         2.777187        -1.460877        -1.612350
 C         2.122006        -1.396899        -0.198315
 O         1.588447        -2.446792         0.578207
 C         3.253446        -0.511464         0.427931
 O         2.308005         0.456803         1.119828
 H        -0.208660        -0.466248         1.325228
 H        -0.173934         1.277116         0.710227
 H        -0.657651        -0.288932        -0.337323
 H         1.479498         0.557636        -2.104576
 H         2.175868         1.778161        -1.005592
 H         4.406855         0.396698        -1.631711
 H         1.863042        -1.336486        -2.300414
 H         3.548416        -2.170858        -1.833951
 H         1.810800        -2.397447         1.579634
 H         4.009155        -0.927605         1.145552
