19
Iteration:  1765charge 0 multiplicity 1
 C         0.024925         0.280974         0.492147
 C         1.459965         0.077281         0.046034
 C         2.036928         0.820152        -1.140440
 C         3.257330        -0.090811        -1.245619
 C         2.543237        -1.491818        -1.532542
 C         2.090878        -1.352413        -0.101648
 O         1.516666        -2.520378         0.610425
 C         3.348036        -0.526444         0.367176
 O         2.525905         0.365952         1.035660
 H        -0.285037        -0.563307         1.130902
 H        -0.233805         1.192468         1.037240
 H        -0.610913         0.206369        -0.482882
 H         1.557949         0.839831        -2.148080
 H         2.229990         1.849773        -0.948139
 H         4.193976         0.129644        -1.668806
 H         1.713956        -1.616813        -2.196223
 H         3.156787        -2.381873        -1.618148
 H         2.183955        -3.162584         0.330898
 H         4.213127        -0.789254         0.947727
