19
Iteration:  2295charge 0 multiplicity 1
 C         0.032335         0.240658         0.452817
 C         1.424441         0.092976         0.046027
 C         2.015027         0.768086        -1.217143
 C         3.283852        -0.090806        -1.179760
 C         2.734289        -1.525985        -1.475940
 C         2.103585        -1.397930        -0.170380
 O         1.593001        -2.531389         0.521713
 C         3.204255        -0.476218         0.365406
 O         2.455967         0.407476         1.129532
 H        -0.375165        -0.073617         1.406244
 H        -0.209719         1.358089         0.430319
 H        -0.495473        -0.198148        -0.349501
 H         1.409776         0.347164        -1.993107
 H         2.203717         1.867757        -1.042970
 H         4.266163         0.380770        -1.662445
 H         2.179474        -1.879067        -2.422260
 H         3.443923        -2.322049        -1.290768
 H         0.987074        -2.247258         1.195436
 H         4.173917        -0.748940         0.795250
