19
Iteration:  3961charge 0 multiplicity 1
 C        -0.100984         0.221577         0.293893
 C         1.355871        -0.006734        -0.035699
 C         2.087793         0.714104        -1.168233
 C         3.347504        -0.100590        -1.099728
 C         2.837688        -1.501488        -1.450976
 C         2.137214        -1.403376        -0.110500
 O         1.553596        -2.455196         0.554930
 C         3.352358        -0.467694         0.385285
 O         2.356398         0.402746         1.143280
 H        -0.462942        -0.521257         0.966131
 H        -0.390750         1.213220         0.745801
 H        -0.673858         0.366287        -0.673498
 H         1.481802         0.696260        -2.136786
 H         2.116312         1.874792        -0.979905
 H         4.214840         0.217373        -1.566098
 H         2.294737        -1.579965        -2.423649
 H         3.586522        -2.422951        -1.337037
 H         0.732762        -2.087402         0.875785
 H         4.272750        -0.559253         0.933220
