19
Iteration:  4190charge 0 multiplicity 1
 C         0.004490         0.301325         0.301972
 C         1.417286         0.008062         0.027991
 C         2.069356         0.708548        -1.184912
 C         3.357189        -0.102750        -1.050928
 C         2.786974        -1.530715        -1.462014
 C         2.052587        -1.401789        -0.192634
 O         1.572296        -2.493057         0.534219
 C         3.208492        -0.464421         0.481700
 O         2.269016         0.463791         1.034382
 H        -0.355396        -0.341863         1.096617
 H        -0.141635         1.298689         0.821819
 H        -0.612257         0.258986        -0.663832
 H         1.836402         0.611236        -2.192429
 H         2.302212         1.698069        -0.807467
 H         4.347673         0.270993        -1.172422
 H         2.355628        -1.783641        -2.382739
 H         3.611985        -2.282156        -1.416383
 H         2.243341        -3.025897         0.896875
 H         4.117109        -0.619592         1.004634
