19
Iteration:   908charge 0 multiplicity 1
 C        -0.060960         0.166416         0.426151
 C         1.388459         0.075902         0.057060
 C         2.092731         0.747988        -1.176758
 C         3.334811        -0.103288        -1.149196
 C         2.774926        -1.573325        -1.570187
 C         2.079946        -1.352729        -0.189234
 O         1.564908        -2.419036         0.579218
 C         3.239986        -0.513050         0.461324
 O         2.378063         0.477439         1.077513
 H        -0.275150        -0.554385         1.233769
 H        -0.427839         1.243804         0.530456
 H        -0.741704        -0.219041        -0.511412
 H         1.535413         0.588740        -2.118878
 H         2.063417         1.813923        -1.095772
 H         4.347957         0.283429        -1.543263
 H         2.222863        -1.549627        -2.546683
 H         3.515582        -2.340306        -1.378788
 H         2.406258        -2.866171         0.935558
 H         3.998411        -0.868900         1.019723
