19
Iteration:    15
 C        -0.073300         0.099269         0.352221
 C         1.368451         0.117942         0.007750
 C         2.090199         0.679408        -1.279658
 C         3.416905        -0.113698        -1.055521
 C         2.739633        -1.486030        -1.463271
 C         2.019809        -1.298490        -0.145869
 O         1.675294        -2.593703         0.472658
 C         3.275927        -0.416237         0.418958
 O         2.363368         0.524963         1.197114
 H        -0.200588        -0.449027         1.337032
 H        -0.429821         1.179935         0.594722
 H        -0.733094        -0.151099        -0.448058
 H         1.560174         0.134112        -2.216841
 H         2.175133         1.805905        -1.430343
 H         4.345292         0.434809        -1.605420
 H         2.149747        -1.410373        -2.436047
 H         3.319946        -2.367009        -1.329565
 H         0.933212        -2.507104         1.175362
 H         4.152542        -0.720238         0.969393
