19
Iteration:   334charge 0 multiplicity 1
 C        -0.037699         0.187650         0.412808
 C         1.406880         0.080207         0.031270
 C         2.051239         0.727536        -1.245648
 C         3.350953        -0.068803        -1.108128
 C         2.715885        -1.499681        -1.453295
 C         2.154740        -1.322655        -0.082364
 O         1.606075        -2.573050         0.566424
 C         3.287092        -0.451033         0.438442
 O         2.359038         0.497388         1.041061
 H        -0.204316        -0.605263         1.105884
 H        -0.311507         1.104450         0.866148
 H        -0.695755        -0.187929        -0.458458
 H         1.644732         0.401394        -2.245989
 H         1.922781         1.779920        -1.105729
 H         4.307539         0.428456        -1.565885
 H         2.027122        -1.476855        -2.316436
 H         3.513220        -2.315808        -1.541863
 H         1.036547        -3.131922        -0.023246
 H         4.109727        -0.783372         0.996121
