19
Iteration:  1604
 C         0.129906         0.375727         0.529075
 C         1.417903         0.011058        -0.019323
 C         1.972324         0.803717        -1.112740
 C         3.254115        -0.068226        -1.287591
 C         2.692490        -1.490269        -1.535604
 C         2.133761        -1.447292        -0.140238
 O         1.500011        -2.434438         0.601482
 C         3.305507        -0.565454         0.266410
 O         2.428050         0.301091         1.123050
 H        -0.140914        -0.341997         1.271465
 H         0.188422         1.356109         0.937569
 H        -0.719523         0.224815        -0.179953
 H         1.241108         0.646689        -1.972849
 H         2.085818         1.839429        -0.901345
 H         4.049315         0.293459        -1.843253
 H         2.161158        -1.654946        -2.565202
 H         3.456516        -2.244721        -1.631299
 H         1.680066        -2.623483         1.504039
 H         4.211342        -0.961956         0.726019
