19
Iteration:  3999
 C        -0.037615         0.284404         0.350362
 C         1.414926         0.137736         0.002235
 C         2.087535         0.745125        -1.191031
 C         3.348885        -0.153405        -1.080108
 C         2.820391        -1.532483        -1.435909
 C         2.071342        -1.445745        -0.158004
 O         1.609382        -2.605324         0.455004
 C         3.206078        -0.465936         0.480789
 O         2.270138         0.497478         1.070600
 H        -0.197432        -0.143157         1.380424
 H        -0.235260         1.311118         0.445216
 H        -0.629643        -0.306837        -0.261402
 H         1.730368         0.492946        -2.168347
 H         2.366955         1.714928        -0.924569
 H         4.365395         0.177185        -1.575271
 H         2.477945        -1.424476        -2.493842
 H         3.562124        -2.234879        -1.442668
 H         1.281777        -2.233105         1.376557
 H         4.195612        -0.634494         0.969099
