19
Iteration:  3707
 C        -0.055017         0.233797         0.335425
 C         1.406088         0.060485        -0.052774
 C         2.094341         0.768779        -1.290353
 C         3.389260        -0.111234        -1.067233
 C         2.880235        -1.481209        -1.440831
 C         2.038134        -1.405631        -0.124230
 O         1.556596        -2.559513         0.573057
 C         3.211368        -0.482290         0.443648
 O         2.279059         0.427262         1.113166
 H        -0.547872        -0.325369         1.142325
 H         0.095429         1.243316         0.632527
 H        -0.676428         0.317484        -0.531417
 H         1.567782         0.764823        -2.314189
 H         2.097895         1.907951        -1.153184
 H         4.272788         0.382837        -1.601802
 H         2.292741        -1.456634        -2.405511
 H         3.512659        -2.369895        -1.415053
 H         2.314239        -2.761674         1.239913
 H         4.054914        -0.751151         1.124419
