19
Iteration:  1278charge 0 multiplicity 1
 C         0.061819         0.300353         0.582091
 C         1.441394         0.049551         0.028168
 C         2.070546         0.720200        -1.231201
 C         3.276068        -0.150973        -1.184876
 C         2.684147        -1.485549        -1.545173
 C         2.027255        -1.341489        -0.196025
 O         1.648165        -2.450086         0.592576
 C         3.181114        -0.575931         0.409293
 O         2.399648         0.465741         1.078666
 H        -0.125092        -0.231786         1.525891
 H        -0.053623         1.406071         0.497400
 H        -0.711388        -0.113430        -0.184106
 H         1.385888         0.559813        -2.154744
 H         2.357269         1.747871        -0.832636
 H         4.195942         0.242167        -1.586975
 H         2.148512        -1.649859        -2.480925
 H         3.555144        -2.286693        -1.544414
 H         1.394427        -3.249396         0.187067
 H         4.115574        -1.027965         0.830673
