19
Iteration:  2616
 C        -0.085035         0.318036         0.369636
 C         1.361725         0.044862         0.002190
 C         2.128699         0.779549        -1.196999
 C         3.337451        -0.053008        -1.180491
 C         2.788533        -1.630944        -1.455067
 C         2.060468        -1.420201        -0.110093
 O         1.659804        -2.557081         0.560393
 C         3.230621        -0.449232         0.406222
 O         2.270295         0.452175         1.072825
 H        -0.299968        -0.158287         1.333415
 H        -0.274635         1.326306         0.610057
 H        -0.805657         0.043362        -0.483026
 H         1.652303         0.990235        -2.180144
 H         2.440777         1.765624        -0.873723
 H         4.255554         0.214289        -1.766945
 H         2.144591        -1.653120        -2.277497
 H         3.603522        -2.431366        -1.337695
 H         2.414897        -2.771801         1.107147
 H         4.045075        -0.883447         1.049506
