19
Iteration:  1503
 C         0.028624         0.298723         0.500035
 C         1.421402         0.041430         0.100412
 C         1.960894         0.771510        -1.143850
 C         3.283973        -0.152949        -1.203027
 C         2.701146        -1.453377        -1.548252
 C         2.076952        -1.379793        -0.159429
 O         1.636081        -2.382164         0.632751
 C         3.263362        -0.626373         0.294600
 O         2.490430         0.347316         1.070813
 H        -0.230657         0.062888         1.521278
 H         0.022560         1.394848         0.563104
 H        -0.700939        -0.038588        -0.241796
 H         1.453938         0.741649        -2.147766
 H         1.937208         1.837215        -0.925658
 H         4.211311         0.134031        -1.899191
 H         2.091895        -1.540594        -2.591731
 H         3.351154        -2.343835        -1.394539
 H         0.871165        -2.874999         0.192225
 H         4.077198        -0.971713         0.927890
