19
Iteration:  2715
 C        -0.020826         0.095657         0.449377
 C         1.415624         0.074275        -0.030951
 C         2.100816         0.714824        -1.240545
 C         3.380208        -0.151262        -1.052319
 C         2.777532        -1.537877        -1.450828
 C         2.083479        -1.394751        -0.153311
 O         1.488067        -2.411601         0.559289
 C         3.256775        -0.411308         0.417983
 O         2.347208         0.536285         1.057542
 H        -0.228719        -0.559460         1.365605
 H        -0.237071         1.108157         0.733749
 H        -0.808994        -0.326238        -0.248787
 H         1.607305         0.725486        -2.236703
 H         2.259375         1.793727        -1.082672
 H         4.176288         0.323511        -1.734147
 H         2.185536        -1.459211        -2.341849
 H         3.560752        -2.412854        -1.535653
 H         2.006117        -3.223586         0.290255
 H         4.121655        -0.794805         0.992064
