19
Iteration:   352
 C        -0.053140         0.156340         0.393084
 C         1.346044         0.033790         0.026491
 C         2.001322         0.764984        -1.186084
 C         3.257743        -0.125458        -1.233567
 C         2.822166        -1.550208        -1.440269
 C         2.208115        -1.453126        -0.065537
 O         1.554339        -2.438798         0.533622
 C         3.283729        -0.425284         0.474584
 O         2.392688         0.502282         1.095763
 H        -0.479534        -0.494572         1.219549
 H        -0.069198         1.261412         0.729740
 H        -0.615394        -0.019484        -0.512571
 H         1.286082         0.803358        -1.957204
 H         2.339548         1.781171        -0.894783
 H         4.265328         0.307924        -1.729429
 H         2.231644        -1.725537        -2.461002
 H         3.582647        -2.310638        -1.514840
 H         1.554910        -3.092457        -0.227069
 H         4.293163        -0.501766         1.001099
