19
Iteration:    21charge 0 multiplicity 1
 C        -0.079452         0.127462         0.384738
 C         1.376531         0.126751         0.016370
 C         2.091477         0.659623        -1.308920
 C         3.407980        -0.101711        -1.090148
 C         2.727939        -1.477311        -1.455978
 C         2.048880        -1.295461        -0.132923
 O         1.681077        -2.596276         0.455116
 C         3.264020        -0.424909         0.439472
 O         2.373794         0.548124         1.189957
 H        -0.190374        -0.468609         1.271927
 H        -0.558024         1.045125         0.572230
 H        -0.701039        -0.275929        -0.464807
 H         1.600790         0.266230        -2.110468
 H         2.106902         1.710090        -1.418142
 H         4.309605         0.220911        -1.430289
 H         2.208068        -1.425567        -2.383575
 H         3.298111        -2.434538        -1.329981
 H         0.891695        -2.616032         0.958849
 H         4.052484        -0.783204         1.122062
