19
Iteration:  4998charge 0 multiplicity 1
 C         0.008326         0.425572         0.422309
 C         1.474840         0.077963         0.093791
 C         2.121402         0.798760        -1.056921
 C         3.332023        -0.141914        -1.167365
 C         2.699972        -1.495183        -1.578134
 C         2.042706        -1.283967        -0.161519
 O         1.549853        -2.533432         0.430284
 C         3.251020        -0.570977         0.355121
 O         2.386964         0.235206         1.128592
 H        -0.230514         0.464107         1.505552
 H        -0.431956         1.367410         0.039558
 H        -0.635617        -0.410718        -0.037523
 H         1.413092         0.619049        -2.004704
 H         2.439725         1.774530        -0.668884
 H         4.293972         0.377230        -1.638193
 H         2.048138        -1.738295        -2.425485
 H         3.448028        -2.302065        -1.440846
 H         1.255193        -2.359586         1.397028
 H         4.184915        -0.916973         0.778086
