19
Iteration:  1965
 C         0.014460         0.299666         0.475977
 C         1.443059         0.011413         0.050155
 C         2.051096         0.787302        -1.223171
 C         3.248730        -0.064181        -1.259989
 C         2.649232        -1.491947        -1.489509
 C         2.198243        -1.469783        -0.055559
 O         1.505784        -2.476891         0.608915
 C         3.323869        -0.499995         0.397368
 O         2.447399         0.424216         1.051692
 H        -0.248501        -0.544144         1.176089
 H        -0.235317         1.274729         0.842637
 H        -0.741466         0.324906        -0.330268
 H         1.320204         0.377328        -1.972787
 H         2.216676         1.771067        -0.765086
 H         4.154465         0.273598        -1.809352
 H         1.937139        -1.575442        -2.347713
 H         3.414991        -2.264254        -1.503983
 H         1.438867        -3.101731        -0.151973
 H         4.287173        -0.725690         0.895311
