19
Iteration:  2472
 C        -0.013096         0.333023         0.319661
 C         1.403749         0.048136         0.089338
 C         1.996397         0.725077        -1.162324
 C         3.302637        -0.050812        -1.202967
 C         2.770637        -1.516726        -1.438524
 C         2.168198        -1.467761        -0.093365
 O         1.478101        -2.516905         0.567774
 C         3.275114        -0.439902         0.361703
 O         2.404821         0.403393         1.110424
 H        -0.279963         0.086062         1.329241
 H        -0.403602         1.310337        -0.048831
 H        -0.502676        -0.471432        -0.396762
 H         1.379085         0.712068        -2.072259
 H         2.205168         1.771039        -0.837231
 H         4.132613         0.269154        -1.709350
 H         2.193688        -1.824164        -2.335338
 H         3.710817        -2.099523        -1.455718
 H         2.195681        -3.099208         0.745915
 H         4.327230        -0.576088         0.793174
