19
Iteration:  1849
 C         0.008290         0.251207         0.652967
 C         1.412785         0.127496         0.108155
 C         2.041809         0.806591        -1.199259
 C         3.295290        -0.182958        -1.202040
 C         2.695461        -1.505920        -1.513157
 C         2.060662        -1.411035        -0.204453
 O         1.607358        -2.552047         0.517198
 C         3.298342        -0.562387         0.318426
 O         2.449064         0.524171         1.038140
 H         0.017494        -0.307614         1.594152
 H        -0.304524         1.329793         0.759074
 H        -0.648639        -0.043875        -0.083475
 H         1.504090         0.471524        -2.018475
 H         2.300916         1.872571        -1.045415
 H         4.229791        -0.002863        -1.763195
 H         2.098401        -1.361823        -2.458883
 H         3.374552        -2.406551        -1.447313
 H         0.613029        -2.555934         0.552873
 H         4.103234        -0.988865         0.835579
