19
Iteration:  1931charge 0 multiplicity 1
 C        -0.057172         0.246652         0.482634
 C         1.380239         0.118323         0.075217
 C         2.144553         0.773179        -1.160145
 C         3.299141        -0.121602        -1.213580
 C         2.571760        -1.493876        -1.552628
 C         2.089131        -1.372648        -0.144034
 O         1.615554        -2.415555         0.637106
 C         3.256867        -0.589097         0.303375
 O         2.447533         0.378477         1.053581
 H        -0.294862        -0.404832         1.342444
 H        -0.149647         1.240601         0.811683
 H        -0.708094        -0.147252        -0.353713
 H         1.499238         0.953707        -2.068511
 H         2.172349         1.822960        -0.920587
 H         4.332593         0.186062        -1.495179
 H         2.068602        -1.614101        -2.545771
 H         3.361981        -2.257358        -1.453439
 H         2.264468        -3.108877         0.589428
 H         4.162617        -0.970560         0.893474
