19
Iteration:   704charge 0 multiplicity 1
 C         0.011906         0.162381         0.395107
 C         1.433181         0.041458        -0.106406
 C         2.070096         0.750857        -1.196942
 C         3.335728        -0.132243        -1.122297
 C         2.729179        -1.446818        -1.553113
 C         2.145200        -1.398575        -0.098097
 O         1.555227        -2.456063         0.666377
 C         3.248137        -0.447781         0.389973
 O         2.293105         0.445345         1.113633
 H        -0.223038        -0.472217         1.233291
 H        -0.101044         1.146181         0.724370
 H        -0.668256        -0.224805        -0.359902
 H         1.565692         0.591467        -2.110522
 H         2.317445         1.773098        -0.847137
 H         4.199685         0.389690        -1.542061
 H         2.041726        -1.434170        -2.389175
 H         3.456629        -2.213170        -1.611679
 H         1.974897        -3.260586         0.324143
 H         4.111744        -0.636379         0.945105
