19
Iteration:  2895charge 0 multiplicity 1
 C        -0.083275         0.253428         0.451814
 C         1.369863         0.091364         0.060961
 C         2.114097         0.763121        -1.269497
 C         3.358183        -0.089100        -1.115881
 C         2.775020        -1.572871        -1.529193
 C         2.062368        -1.388449        -0.057367
 O         1.626724        -2.615493         0.489233
 C         3.318246        -0.457992         0.412317
 O         2.325200         0.457535         1.052676
 H        -0.171413        -0.057474         1.490935
 H        -0.396115         1.371597         0.644888
 H        -0.785456        -0.176412        -0.329722
 H         1.575954         0.594257        -2.272417
 H         2.277337         1.867063        -1.087700
 H         4.353266         0.238454        -1.519809
 H         1.993401        -1.609146        -2.390266
 H         3.646987        -2.213449        -1.582862
 H         0.943387        -2.380109         1.186199
 H         4.295904        -0.475253         1.088048
