19
Iteration:  4103
 C        -0.049350         0.040583         0.292302
 C         1.451036         0.102207         0.027607
 C         2.153766         0.826810        -1.236011
 C         3.360969        -0.124691        -1.092458
 C         2.796143        -1.503451        -1.431988
 C         2.133035        -1.418597        -0.142373
 O         1.430519        -2.445762         0.631575
 C         3.306842        -0.412619         0.397245
 O         2.287247         0.468752         1.126217
 H        -0.266211        -0.691628         1.129523
 H        -0.298946         1.157913         0.564826
 H        -0.618904         0.139172        -0.757739
 H         1.623412         0.646923        -2.164764
 H         2.493431         1.918301        -1.208169
 H         4.350724        -0.035357        -1.499823
 H         2.240715        -1.517749        -2.365961
 H         3.491729        -2.443803        -1.547923
 H         1.568447        -3.263211         0.140900
 H         4.030458        -0.559678         1.163953
