19
Iteration:  1083charge 0 multiplicity 1
 C        -0.040145         0.198833         0.513020
 C         1.418829         0.070722         0.065762
 C         2.113151         0.782569        -1.262844
 C         3.306562        -0.097089        -1.165876
 C         2.778591        -1.508202        -1.531822
 C         2.161298        -1.466031        -0.089072
 O         1.549963        -2.486196         0.552554
 C         3.252825        -0.452210         0.326998
 O         2.337827         0.415723         1.046480
 H        -0.170914        -0.382869         1.468794
 H        -0.397927         1.119727         1.037693
 H        -0.730763        -0.199959        -0.249894
 H         1.681369         0.748848        -2.240845
 H         2.332080         1.814773        -0.989725
 H         4.277655         0.259772        -1.499932
 H         2.031291        -1.557665        -2.384051
 H         3.556400        -2.382989        -1.745829
 H         1.113632        -2.041927         1.270659
 H         4.145597        -0.761914         0.809366
