19
Iteration:  2233charge 0 multiplicity 1
 C         0.007297         0.200660         0.498366
 C         1.407034         0.105835        -0.051592
 C         2.098700         0.797093        -1.182554
 C         3.372896        -0.086885        -1.232807
 C         2.669666        -1.480849        -1.513486
 C         2.090306        -1.340145        -0.122260
 O         1.570455        -2.485268         0.714237
 C         3.211489        -0.519280         0.368035
 O         2.365655         0.375982         1.065216
 H        -0.040715        -0.370429         1.411805
 H        -0.264110         1.268972         0.695582
 H        -0.660003        -0.183638        -0.403303
 H         1.559806         0.841735        -2.172572
 H         2.373431         1.889412        -0.984881
 H         4.355585         0.092919        -1.824313
 H         2.168645        -1.697705        -2.485454
 H         3.437862        -2.356707        -1.454521
 H         1.523469        -3.111130         0.011395
 H         4.210901        -0.903171         0.920451
