19
Iteration:  4421
 C        -0.093387         0.164001         0.212740
 C         1.433407         0.030838         0.001752
 C         2.038086         0.782939        -1.173168
 C         3.341323        -0.096975        -1.108761
 C         2.738121        -1.499671        -1.402621
 C         2.128669        -1.369884        -0.083745
 O         1.565697        -2.366442         0.537076
 C         3.325643        -0.508068         0.363046
 O         2.449458         0.359105         1.157373
 H        -0.588928        -0.662511         0.843987
 H        -0.376151         1.033289         0.829493
 H        -0.464278         0.122059        -0.780888
 H         1.572976         0.616256        -2.152247
 H         2.041808         1.897037        -0.940612
 H         4.383475         0.157841        -1.439086
 H         2.073453        -1.743087        -2.215002
 H         3.404915        -2.436707        -1.155438
 H         0.633115        -2.159410         0.649618
 H         4.080649        -0.908341         0.881005
