19
Iteration:  4739charge 0 multiplicity 1
 C         0.088095         0.095378         0.357949
 C         1.471853         0.092823         0.012638
 C         2.099986         0.812631        -1.173633
 C         3.353439        -0.125753        -1.126314
 C         2.697375        -1.511003        -1.496066
 C         2.092868        -1.341572        -0.076124
 O         1.317558        -2.346914         0.404005
 C         3.263257        -0.514620         0.445468
 O         2.457093         0.390323         1.163458
 H        -0.098644        -0.232770         1.360855
 H        -0.393838         1.035628         0.189101
 H        -0.423615        -0.794899        -0.135530
 H         1.533262         0.509993        -2.068849
 H         2.532068         1.819635        -0.877777
 H         4.238876         0.180160        -1.718164
 H         2.136952        -1.407911        -2.431777
 H         3.442235        -2.379709        -1.514897
 H         1.630379        -2.744726         1.186985
 H         4.133883        -0.930568         0.941776
