19
Iteration:  2626charge 0 multiplicity 1
 C        -0.057546         0.285022         0.368672
 C         1.329864         0.140654        -0.069557
 C         2.083717         0.814019        -1.226411
 C         3.348139        -0.132576        -1.076108
 C         2.741275        -1.570220        -1.524336
 C         2.175568        -1.430472        -0.134407
 O         1.643073        -2.507769         0.618479
 C         3.196372        -0.478579         0.400121
 O         2.296208         0.404325         1.103568
 H        -0.297340        -0.217565         1.285670
 H        -0.087780         1.332480         0.382680
 H        -0.829582        -0.137940        -0.383450
 H         1.554778         0.785342        -2.213279
 H         2.355988         1.797059        -0.904577
 H         4.167475         0.420025        -1.539281
 H         2.266132        -1.874068        -2.421373
 H         3.485816        -2.421036        -1.410478
 H         2.324180        -3.000588         1.140679
 H         4.151516        -0.727278         0.995383
