19
Iteration:  1731
 C         0.067069         0.214329         0.615644
 C         1.440258         0.039812         0.034141
 C         2.032498         0.798608        -1.185437
 C         3.288336        -0.097431        -1.256956
 C         2.648661        -1.535867        -1.611145
 C         2.082903        -1.355333        -0.171054
 O         1.423709        -2.423975         0.553335
 C         3.316552        -0.511308         0.410390
 O         2.506142         0.368053         1.061082
 H        -0.019828        -0.468456         1.473382
 H        -0.227134         1.250729         0.861722
 H        -0.702870         0.003621        -0.210834
 H         1.438615         0.649481        -2.134155
 H         2.181132         1.839499        -0.859656
 H         4.223662         0.364768        -1.690280
 H         1.973786        -1.552569        -2.460745
 H         3.412987        -2.367505        -1.545980
 H         1.988702        -2.727882         1.298812
 H         4.270103        -0.895442         0.745086
