19
Iteration:  2714charge 0 multiplicity 1
 C        -0.018919         0.092486         0.445764
 C         1.422826         0.067551        -0.029502
 C         2.107076         0.718234        -1.243425
 C         3.380572        -0.153329        -1.056227
 C         2.775933        -1.540016        -1.447594
 C         2.075361        -1.388901        -0.154393
 O         1.486506        -2.414769         0.558826
 C         3.247856        -0.409263         0.419257
 O         2.351575         0.540599         1.061378
 H        -0.214010        -0.552727         1.373644
 H        -0.238221         1.088329         0.744707
 H        -0.828025        -0.346354        -0.269211
 H         1.565249         0.736498        -2.227825
 H         2.246910         1.790047        -1.073455
 H         4.179804         0.303832        -1.748308
 H         2.181328        -1.452276        -2.347067
 H         3.583770        -2.384639        -1.526937
 H         1.997388        -3.206618         0.285321
 H         4.158092        -0.786215         1.003301
