19
Iteration:   454charge 0 multiplicity 1
 C        -0.077147         0.245455         0.308194
 C         1.401413         0.082152         0.127948
 C         2.002042         0.784871        -1.088701
 C         3.228184        -0.104560        -1.273130
 C         2.841516        -1.527365        -1.522019
 C         2.161163        -1.428307        -0.106017
 O         1.607965        -2.573438         0.512186
 C         3.287465        -0.455657         0.411698
 O         2.442332         0.478370         1.127939
 H        -0.476831        -0.318424         1.154237
 H        -0.237193         1.271537         0.546170
 H        -0.655810        -0.230988        -0.553858
 H         1.356725         0.607980        -1.907743
 H         2.166387         1.778002        -0.898699
 H         4.134467         0.326456        -1.809499
 H         2.209618        -1.846531        -2.359087
 H         3.548796        -2.308409        -1.165399
 H         0.782676        -2.299484         0.922763
 H         4.175471        -0.784200         0.873568
