19
Iteration:  4954
 C         0.051627         0.459451         0.436618
 C         1.417180         0.053373         0.064148
 C         2.066477         0.817494        -1.124104
 C         3.371440        -0.093150        -1.135217
 C         2.694950        -1.465755        -1.581058
 C         2.049040        -1.435409        -0.157821
 O         1.497147        -2.559913         0.491761
 C         3.294178        -0.592581         0.405348
 O         2.362504         0.307849         1.099535
 H        -0.155428         0.381943         1.512371
 H        -0.227343         1.513282         0.294399
 H        -0.724684        -0.107388        -0.120092
 H         1.580870         0.709185        -2.209876
 H         2.232498         1.880046        -0.830447
 H         4.403154         0.270893        -1.569522
 H         2.203977        -1.347412        -2.534158
 H         3.292743        -2.356506        -1.670360
 H         2.155912        -3.117321         1.028703
 H         4.074134        -0.888403         1.081413
