19
Iteration:  3483
 C        -0.122740         0.143677         0.402098
 C         1.444665         0.069183        -0.049974
 C         2.103483         0.859377        -1.300380
 C         3.335583        -0.156481        -1.128371
 C         2.820336        -1.491388        -1.507327
 C         2.181034        -1.393771        -0.167701
 O         1.442223        -2.421768         0.536062
 C         3.224323        -0.509258         0.518192
 O         2.403036         0.404470         1.142579
 H        -0.127941        -0.562738         1.127789
 H        -0.582616         1.094213         0.699395
 H        -0.570418        -0.285538        -0.547268
 H         1.650157         0.520212        -2.229857
 H         2.336804         1.862008        -0.854068
 H         4.221067         0.329467        -1.531822
 H         2.052322        -1.421890        -2.246602
 H         3.559857        -2.383641        -1.526639
 H         1.793040        -2.473289         1.407068
 H         4.234010        -0.820644         0.982623
