19
Iteration:  4209charge 0 multiplicity 1
 C        -0.093698         0.228917         0.237849
 C         1.398520         0.048692        -0.028237
 C         2.089021         0.784440        -1.162535
 C         3.387621        -0.080532        -1.160400
 C         2.874525        -1.484970        -1.454223
 C         2.102763        -1.355198        -0.066420
 O         1.460894        -2.500675         0.572572
 C         3.231947        -0.511873         0.434135
 O         2.373297         0.408169         1.144977
 H        -0.495199        -0.222052         1.120490
 H        -0.426868         1.257087         0.488370
 H        -0.604272        -0.175773        -0.703718
 H         1.452791         0.552149        -2.129110
 H         2.216951         1.871861        -0.938367
 H         4.282527         0.221736        -1.718886
 H         2.290202        -1.564307        -2.468803
 H         3.633578        -2.341648        -1.502800
 H         2.190700        -2.923774         1.070942
 H         4.153702        -0.911885         1.044143
