19
Iteration:  4346
 C        -0.048662         0.389531         0.330932
 C         1.417447         0.107412         0.013831
 C         2.045492         0.707711        -1.244054
 C         3.347383        -0.116760        -1.103644
 C         2.933379        -1.550481        -1.498360
 C         2.072691        -1.415276        -0.111334
 O         1.552488        -2.509639         0.515514
 C         3.170433        -0.502885         0.442597
 O         2.282361         0.407478         1.159345
 H        -0.584140        -0.544640         0.790202
 H        -0.125120         1.224626         1.089131
 H        -0.561018         0.485115        -0.615676
 H         1.451688         0.543129        -2.081381
 H         2.250148         1.766821        -1.185566
 H         4.365390         0.159744        -1.565588
 H         2.335890        -1.653946        -2.393327
 H         3.896929        -2.145563        -1.445532
 H         2.243750        -3.062597         0.950331
 H         4.036182        -0.734205         1.042227
