19
Iteration:  2373
 C        -0.093994         0.205004         0.341817
 C         1.447437         0.018806         0.085878
 C         2.000523         0.730393        -1.210622
 C         3.313494        -0.057814        -1.218804
 C         2.757021        -1.513114        -1.474838
 C         2.096332        -1.387980        -0.081602
 O         1.520999        -2.437818         0.641460
 C         3.360895        -0.464992         0.340690
 O         2.469565         0.438010         1.145189
 H        -0.484931        -0.624315         0.901758
 H        -0.371606         1.132069         0.926988
 H        -0.627642         0.371612        -0.615048
 H         1.451500         0.548369        -2.130314
 H         2.089245         1.785786        -0.858463
 H         4.283050         0.173279        -1.784258
 H         2.257788        -1.865303        -2.432235
 H         3.550819        -2.243093        -1.512619
 H         1.093618        -2.969561        -0.027805
 H         4.268856        -0.835145         0.907726
