19
Iteration:  1601charge 0 multiplicity 1
 C         0.132484         0.373248         0.530070
 C         1.423779         0.021739        -0.000390
 C         1.966714         0.785977        -1.105312
 C         3.248836        -0.066633        -1.297766
 C         2.687871        -1.485359        -1.570152
 C         2.157735        -1.474327        -0.139461
 O         1.485322        -2.421878         0.609362
 C         3.272615        -0.567207         0.294284
 O         2.433969         0.305778         1.112330
 H        -0.063284        -0.361257         1.308310
 H         0.153912         1.328105         1.058894
 H        -0.678779         0.185396        -0.235552
 H         1.372819         0.737940        -2.107916
 H         2.077671         1.881473        -1.022151
 H         4.137402         0.394842        -1.918948
 H         2.195188        -1.666161        -2.470477
 H         3.491714        -2.193369        -1.635054
 H         1.659556        -2.730704         1.538604
 H         4.196623        -0.937410         0.740092
