19
Iteration:  2196
 C         0.034795         0.253776         0.418119
 C         1.434106         0.040607         0.066564
 C         1.980732         0.709376        -1.140616
 C         3.331135        -0.097133        -1.211803
 C         2.746529        -1.537100        -1.537560
 C         2.081416        -1.394987        -0.059705
 O         1.468856        -2.436834         0.598600
 C         3.294209        -0.476011         0.387319
 O         2.437904         0.421753         1.048558
 H        -0.443405        -0.554800         0.995265
 H         0.021402         1.230143         0.917549
 H        -0.617906         0.321172        -0.392029
 H         1.419381         0.552155        -2.077300
 H         2.119470         1.814690        -0.900919
 H         4.261579         0.281020        -1.756860
 H         2.013682        -1.529790        -2.422537
 H         3.599231        -2.205821        -1.537030
 H         1.960201        -3.195998         0.317823
 H         4.254537        -0.617990         0.780127
