19
Iteration:  1471charge 0 multiplicity 1
 C        -0.024650         0.367007         0.554888
 C         1.416562         0.142470         0.112656
 C         2.086904         0.839420        -1.252262
 C         3.275410        -0.155043        -1.201308
 C         2.645029        -1.465383        -1.547519
 C         2.066182        -1.435995        -0.114037
 O         1.710185        -2.625054         0.593223
 C         3.274749        -0.546838         0.308278
 O         2.393634         0.343678         1.065329
 H        -0.168492        -0.063716         1.518634
 H        -0.097465         1.430874         0.478530
 H        -0.749061         0.148239        -0.245985
 H         1.639156         0.741025        -2.255139
 H         2.345236         1.815768        -0.927064
 H         4.227412         0.058787        -1.847399
 H         1.850922        -1.389269        -2.474032
 H         3.349953        -2.326183        -1.490378
 H         0.805140        -2.444361         0.833091
 H         4.196550        -0.593984         0.887261
