19
Iteration:  4805charge 0 multiplicity 1
 C         0.042883         0.510481         0.370354
 C         1.367951         0.045899         0.099276
 C         2.068196         0.787708        -1.207922
 C         3.311341        -0.134947        -1.167881
 C         2.764834        -1.482591        -1.505403
 C         2.081501        -1.425183        -0.144199
 O         1.646632        -2.596435         0.494463
 C         3.258500        -0.491563         0.427709
 O         2.360629         0.272032         1.181849
 H        -0.393710         0.132972         1.288821
 H         0.087623         1.588729         0.486660
 H        -0.738205         0.381698        -0.477901
 H         1.398734         0.505657        -2.077020
 H         2.034736         1.904948        -0.960249
 H         4.243233         0.206788        -1.646290
 H         2.261856        -1.319702        -2.578269
 H         3.444132        -2.453233        -1.479710
 H         0.628372        -2.746689         0.516877
 H         4.118053        -0.905582         0.988795
