19
Iteration:  4376charge 0 multiplicity 1
 C        -0.093486         0.187534         0.310799
 C         1.383683         0.032143        -0.086222
 C         2.151856         0.831085        -1.159157
 C         3.397873        -0.090732        -1.049211
 C         2.759973        -1.580435        -1.488234
 C         2.129696        -1.385725        -0.119911
 O         1.530196        -2.412013         0.581452
 C         3.227189        -0.530476         0.429073
 O         2.321966         0.403518         1.042869
 H        -0.535732        -0.757991         0.778070
 H        -0.075713         0.837469         1.217930
 H        -0.600448         0.514815        -0.585751
 H         1.704936         0.815476        -2.195613
 H         2.373681         1.892902        -0.785055
 H         4.335944         0.182601        -1.522712
 H         2.067686        -1.624152        -2.327769
 H         3.656019        -2.290218        -1.768479
 H         1.841139        -2.378447         1.480372
 H         4.045468        -0.783548         1.010636
