19
Iteration:  4467
 C        -0.012770         0.388759         0.407526
 C         1.364043         0.064539        -0.117195
 C         2.102974         0.767910        -1.252714
 C         3.340399        -0.071264        -1.038295
 C         2.825711        -1.531946        -1.433772
 C         2.096799        -1.402448        -0.100395
 O         1.637537        -2.560822         0.572140
 C         3.215323        -0.507392         0.469779
 O         2.273833         0.339320         1.030455
 H         0.027688         0.376861         1.544708
 H        -0.048655         1.480989         0.389005
 H        -0.926572        -0.143195         0.030631
 H         1.647461         0.730666        -2.215220
 H         2.203634         1.811158        -1.036273
 H         4.300454         0.377205        -1.434059
 H         2.245568        -1.457184        -2.397671
 H         3.613868        -2.341195        -1.362891
 H         0.942765        -3.071141         0.052200
 H         4.156588        -0.890742         0.910676
