19
Iteration:  3296charge 0 multiplicity 1
 C        -0.066755         0.164136         0.381435
 C         1.409164         0.018072        -0.050440
 C         2.125812         0.770561        -1.125990
 C         3.376921        -0.109991        -1.168303
 C         2.819897        -1.544293        -1.541081
 C         2.092540        -1.352420        -0.097578
 O         1.523671        -2.399010         0.563208
 C         3.241120        -0.531117         0.409662
 O         2.304940         0.428206         1.062478
 H        -0.301348        -0.472413         1.179841
 H        -0.369434         1.213446         0.754289
 H        -0.791708         0.016933        -0.461277
 H         1.532133         0.750295        -2.077685
 H         2.342798         1.830610        -0.636150
 H         4.220008         0.444276        -1.550611
 H         2.338486        -1.500107        -2.487780
 H         3.521910        -2.450731        -1.334474
 H         2.083465        -2.659113         1.248822
 H         4.111064        -0.785284         0.995671
