19
Iteration:  4344charge 0 multiplicity 1
 C        -0.041678         0.385175         0.334768
 C         1.415382         0.114878         0.018011
 C         2.037660         0.709611        -1.225878
 C         3.330580        -0.110129        -1.092044
 C         2.950654        -1.569392        -1.513736
 C         2.081977        -1.439312        -0.116315
 O         1.549236        -2.503738         0.508868
 C         3.177666        -0.507677         0.448664
 O         2.288929         0.420259         1.158098
 H        -0.613046        -0.520852         0.785036
 H        -0.123782         1.307419         1.003633
 H        -0.579064         0.535282        -0.619156
 H         1.445393         0.489578        -2.113874
 H         2.250844         1.808328        -1.241714
 H         4.275475         0.223491        -1.548849
 H         2.287446        -1.648813        -2.352368
 H         3.949690        -2.197782        -1.470074
 H         2.240211        -3.129012         0.925695
 H         3.956136        -0.695541         1.061726
