19
Iteration:  4571charge 0 multiplicity 1
 C        -0.038550         0.062362         0.333684
 C         1.403400         0.083218         0.005016
 C         2.118099         0.894940        -1.216346
 C         3.394602        -0.090724        -1.090678
 C         2.789737        -1.480804        -1.469698
 C         2.067516        -1.342722        -0.159817
 O         1.382964        -2.362773         0.578497
 C         3.239472        -0.625224         0.472510
 O         2.413150         0.411885         1.059956
 H        -0.070660        -0.779276         1.049606
 H        -0.318466         1.055072         0.773645
 H        -0.634774        -0.171604        -0.517026
 H         1.844490         0.816898        -2.265769
 H         2.466673         1.893274        -0.999510
 H         4.351935         0.228039        -1.561593
 H         2.183430        -1.715215        -2.327901
 H         3.440539        -2.355741        -1.526085
 H         2.045900        -2.734060         1.145768
 H         4.185169        -1.191566         0.858873
