19
Iteration:  1820charge 0 multiplicity 1
 C         0.038964         0.334647         0.593081
 C         1.419632         0.006468        -0.004332
 C         2.007913         0.806465        -1.196713
 C         3.213912        -0.084605        -1.243833
 C         2.712513        -1.472846        -1.539789
 C         2.142104        -1.436109        -0.184453
 O         1.580686        -2.437189         0.655144
 C         3.293392        -0.569881         0.308071
 O         2.435777         0.362054         1.118056
 H        -0.148439        -0.295027         1.474017
 H         0.139097         1.372879         0.796550
 H        -0.866447         0.156298        -0.088318
 H         1.498193         0.567505        -2.177258
 H         2.274369         1.807740        -0.955243
 H         4.172216         0.136982        -1.622294
 H         2.045145        -1.486636        -2.398376
 H         3.430364        -2.341732        -1.553219
 H         0.929444        -2.924264         0.053356
 H         4.260523        -0.965851         0.661645
