19
Iteration:  3627charge 0 multiplicity 1
 C        -0.086697         0.158073         0.329566
 C         1.424168         0.009026         0.000874
 C         2.083581         0.764107        -1.191260
 C         3.362561        -0.077423        -1.068483
 C         2.836394        -1.536346        -1.536152
 C         2.145501        -1.390390        -0.151498
 O         1.574921        -2.346527         0.585474
 C         3.233830        -0.475837         0.453999
 O         2.363132         0.378790         1.085170
 H        -0.311913        -0.129206         1.371692
 H        -0.441140         1.164325         0.220495
 H        -0.645967        -0.337177        -0.466112
 H         1.494534         0.458448        -2.075179
 H         2.082631         1.809144        -0.844953
 H         4.446194         0.223756        -1.280604
 H         2.186312        -1.670244        -2.469704
 H         3.485618        -2.415744        -1.387323
 H         0.559566        -2.472486         0.440136
 H         4.086706        -0.723697         1.058924
