19
Iteration:  3528charge 0 multiplicity 1
 C        -0.102458         0.304026         0.318167
 C         1.364886         0.035391        -0.015429
 C         2.004656         0.761953        -1.170380
 C         3.394537        -0.096510        -1.143787
 C         2.844691        -1.546765        -1.508753
 C         2.168603        -1.405739        -0.060295
 O         1.501511        -2.454835         0.562601
 C         3.209798        -0.492004         0.442072
 O         2.374043         0.378227         1.089364
 H        -0.476772        -0.424120         0.979368
 H        -0.031943         1.236835         0.827595
 H        -0.805272         0.343932        -0.534396
 H         1.451456         0.614841        -2.115836
 H         2.313696         1.724422        -0.801904
 H         4.366089         0.349088        -1.492033
 H         2.316957        -1.591399        -2.467923
 H         3.755427        -2.202546        -1.577409
 H         2.191135        -3.078166         0.874358
 H         4.219710        -0.638158         0.879539
