19
Iteration:  1816charge 0 multiplicity 1
 C         0.018219         0.328954         0.580885
 C         1.441063         0.014459         0.000130
 C         1.992978         0.787187        -1.171638
 C         3.234702        -0.085119        -1.240490
 C         2.708465        -1.493323        -1.537976
 C         2.147434        -1.445325        -0.165446
 O         1.571774        -2.418142         0.652889
 C         3.308726        -0.560417         0.292519
 O         2.424209         0.346359         1.120982
 H        -0.324206        -0.181442         1.469556
 H         0.151692         1.400736         0.856853
 H        -0.783662         0.184475        -0.048044
 H         1.491707         0.731025        -2.097546
 H         2.200313         1.875200        -1.061572
 H         4.180786         0.084084        -1.812019
 H         2.129610        -1.448440        -2.498983
 H         3.485171        -2.289632        -1.698267
 H         1.015582        -2.967600         0.127368
 H         4.236599        -0.964197         0.633589
