19
Iteration:  4758
 C        -0.005600         0.178685         0.458542
 C         1.433203         0.090001         0.022447
 C         2.138200         0.825480        -1.142863
 C         3.446319        -0.127926        -1.215382
 C         2.752598        -1.461902        -1.488113
 C         2.065344        -1.391468        -0.187593
 O         1.350145        -2.476660         0.443734
 C         3.322623        -0.575498         0.447185
 O         2.381996         0.402385         1.104976
 H        -0.166828         0.032104         1.567195
 H        -0.438015         1.198329         0.199611
 H        -0.656191        -0.530159        -0.075405
 H         1.622729         0.789419        -2.085059
 H         2.366619         1.830806        -0.820231
 H         4.481590         0.231551        -1.516624
 H         1.971548        -1.721065        -2.353810
 H         3.569760        -2.227444        -1.494240
 H         1.409236        -2.278990         1.400243
 H         4.223298        -0.753024         0.999890
