19
Iteration:  4752
 C         0.022416         0.148136         0.436476
 C         1.489490         0.074812         0.065482
 C         2.194465         0.774523        -1.136758
 C         3.384480        -0.113636        -1.207780
 C         2.728596        -1.463354        -1.493579
 C         2.081180        -1.351396        -0.164612
 O         1.318439        -2.441633         0.427522
 C         3.321369        -0.544372         0.441481
 O         2.368184         0.397905         1.103682
 H         0.012169         0.022343         1.487643
 H        -0.495130         1.047458         0.209017
 H        -0.506844        -0.594483        -0.217432
 H         1.645086         0.919445        -2.130956
 H         2.134548         1.919864        -0.990813
 H         4.265286         0.261519        -1.653645
 H         2.110436        -1.659522        -2.277725
 H         3.440750        -2.305409        -1.450638
 H         1.532562        -2.444674         1.433035
 H         4.141510        -0.929060         1.137017
