19
Iteration:     9
 C        -0.077535         0.137863         0.338946
 C         1.394146         0.085118         0.001772
 C         2.050931         0.724966        -1.233362
 C         3.416066        -0.093624        -1.074533
 C         2.784694        -1.488124        -1.473589
 C         2.038493        -1.356621        -0.093085
 O         1.644846        -2.546812         0.494184
 C         3.248771        -0.415579         0.428255
 O         2.336782         0.455767         1.129920
 H        -0.320657        -0.469336         1.187717
 H        -0.095754         1.163372         0.626023
 H        -0.761474        -0.238418        -0.489083
 H         1.577862         0.476396        -2.105678
 H         2.199131         1.779330        -1.268412
 H         4.113147         0.395670        -1.621036
 H         2.217878        -1.640512        -2.373327
 H         3.529436        -2.360648        -1.470179
 H         1.230750        -2.212444         1.339779
 H         4.273738        -0.730470         0.796847
