19
Iteration:   322
 C        -0.007028         0.140420         0.452240
 C         1.404852         0.072782        -0.004947
 C         2.032571         0.752565        -1.302889
 C         3.404989        -0.025736        -1.080210
 C         2.761942        -1.429254        -1.470223
 C         1.991552        -1.414957        -0.075708
 O         1.668948        -2.566212         0.623924
 C         3.240228        -0.474477         0.391570
 O         2.356304         0.460144         1.047423
 H        -0.218706        -0.532695         1.260306
 H        -0.315792         1.162439         0.692864
 H        -0.622527         0.038328        -0.518368
 H         1.477887         0.553668        -2.225140
 H         2.216449         1.796612        -1.238093
 H         4.491171         0.426445        -1.476525
 H         2.254497        -1.396475        -2.499540
 H         3.292674        -2.434865        -1.380995
 H         0.901901        -2.788514         0.121829
 H         4.109330        -0.749345         0.952548
