19
Iteration:  4939
 C        -0.022924         0.353624         0.471632
 C         1.408613         0.035143         0.049188
 C         2.146861         0.751202        -1.126393
 C         3.365570        -0.163253        -1.151514
 C         2.722171        -1.488887        -1.520590
 C         2.070919        -1.363545        -0.159489
 O         1.449399        -2.469680         0.423506
 C         3.230450        -0.533784         0.391678
 O         2.420341         0.383935         1.170705
 H        -0.191308        -0.015269         1.490668
 H         0.003322         1.464840         0.429193
 H        -0.650764        -0.025590        -0.270438
 H         1.458746         0.804318        -1.946303
 H         2.289454         1.834909        -0.967219
 H         4.223668         0.171446        -1.695913
 H         1.926372        -1.716349        -2.342814
 H         3.511237        -2.335011        -1.621214
 H         2.230549        -3.071478         0.503629
 H         4.151229        -0.991293         0.801308
