19
Iteration:  1992charge 0 multiplicity 1
 C         0.001403         0.272706         0.507660
 C         1.443503         0.088383         0.062174
 C         1.923011         0.709793        -1.192173
 C         3.318469        -0.137238        -1.213603
 C         2.809887        -1.534793        -1.547213
 C         2.070766        -1.381282        -0.131632
 O         1.542903        -2.456603         0.584393
 C         3.261495        -0.510996         0.328242
 O         2.497333         0.444794         1.100770
 H        -0.179236        -0.450500         1.270795
 H        -0.198165         1.272334         1.076530
 H        -0.813627         0.385945        -0.260720
 H         1.149206         0.382439        -1.848321
 H         2.095795         1.785154        -1.012970
 H         4.251611         0.312161        -1.602228
 H         2.501206        -1.740616        -2.561437
 H         3.472548        -2.383503        -1.235224
 H         0.858055        -2.783806        -0.026363
 H         4.218467        -0.832619         0.817970
