19
Iteration:  3883
 C        -0.026929         0.235047         0.290139
 C         1.345313         0.105779        -0.077924
 C         2.075769         0.765067        -1.226389
 C         3.340603        -0.131607        -1.138379
 C         2.803234        -1.520515        -1.495282
 C         2.130753        -1.379375        -0.080691
 O         1.552588        -2.566035         0.504477
 C         3.203501        -0.485810         0.554454
 O         2.333602         0.494261         1.115487
 H        -0.217749        -0.347477         1.132734
 H        -0.136627         1.288730         0.665655
 H        -0.792623        -0.006875        -0.474839
 H         1.666434         0.622213        -2.235564
 H         2.290671         1.718211        -0.701013
 H         4.312709         0.117988        -1.434171
 H         2.322743        -1.595779        -2.489535
 H         3.694390        -2.252090        -1.505656
 H         2.111002        -2.852321         1.312649
 H         4.029304        -0.771045         1.234077
