19
Iteration:  2795
 C        -0.081140         0.273121         0.339130
 C         1.373646         0.051793        -0.035308
 C         2.103023         0.756495        -1.244331
 C         3.349903        -0.111737        -1.129066
 C         2.746009        -1.482194        -1.575395
 C         2.107193        -1.401865        -0.012614
 O         1.602138        -2.576457         0.562449
 C         3.225636        -0.470952         0.459392
 O         2.365144         0.458245         1.109857
 H        -0.263593        -0.434285         1.126692
 H        -0.364618         1.333085         0.688073
 H        -0.724789         0.162255        -0.472997
 H         1.585644         0.519419        -2.119655
 H         2.244198         1.798060        -0.896552
 H         4.252103         0.359429        -1.418769
 H         2.072555        -1.537949        -2.468363
 H         3.442847        -2.286966        -1.728023
 H         2.192913        -2.805628         1.350996
 H         4.127451        -0.759464         0.899501
