19
Iteration:   645
 C         0.056626         0.185343         0.430009
 C         1.447377        -0.055861         0.001027
 C         1.949233         0.727070        -1.219481
 C         3.322543        -0.051783        -1.126749
 C         2.790902        -1.488642        -1.423735
 C         2.209030        -1.420178        -0.083997
 O         1.429754        -2.453096         0.496423
 C         3.318971        -0.424679         0.432876
 O         2.341403         0.460180         1.049524
 H        -0.289849        -0.292459         1.357385
 H        -0.009614         1.344846         0.474944
 H        -0.646674         0.005544        -0.382310
 H         1.282912         0.587690        -2.203712
 H         1.864792         1.812113        -0.994247
 H         4.213503         0.404086        -1.657087
 H         2.094974        -1.792527        -2.273284
 H         3.659355        -2.178021        -1.468115
 H         2.043168        -3.268024         0.544235
 H         4.243062        -0.555485         1.088601
