19
Iteration:  2220
 C        -0.086383         0.212845         0.487151
 C         1.386215         0.110583         0.059515
 C         2.157339         0.812610        -1.256536
 C         3.344965        -0.114136        -1.229884
 C         2.710489        -1.575113        -1.519232
 C         2.029982        -1.376418        -0.148915
 O         1.617340        -2.398634         0.628211
 C         3.231648        -0.542150         0.398898
 O         2.424373         0.399437         1.089107
 H        -0.283917        -0.525286         1.244722
 H        -0.289795         1.245645         0.878927
 H        -0.875001        -0.044640        -0.232251
 H         1.545471         0.642377        -2.159412
 H         2.255293         1.950929        -1.030551
 H         4.356747         0.344509        -1.698221
 H         1.872126        -1.596032        -2.306670
 H         3.521176        -2.354039        -1.470003
 H         1.709850        -3.284589         0.165899
 H         4.167263        -0.890047         0.982797
