19
Iteration:  2737charge 0 multiplicity 1
 C        -0.083479         0.292977         0.433187
 C         1.416043        -0.011048        -0.000868
 C         2.042889         0.727910        -1.256940
 C         3.387110        -0.065421        -1.164988
 C         2.859071        -1.493955        -1.507123
 C         2.159359        -1.420809        -0.106394
 O         1.498102        -2.412158         0.600370
 C         3.236409        -0.506794         0.475279
 O         2.326056         0.377642         1.025489
 H        -0.366888        -0.403467         1.307548
 H        -0.205174         1.300029         0.820291
 H        -0.847552        -0.048416        -0.332039
 H         1.324653         0.619241        -2.087546
 H         1.911347         1.812513        -1.133684
 H         4.403078         0.321332        -1.556668
 H         2.204807        -1.604729        -2.347442
 H         3.829839        -2.139094        -1.518022
 H         2.113548        -3.130182         0.682938
 H         4.167538        -0.613875         1.024557
