19
Iteration:  3983charge 0 multiplicity 1
 C        -0.019968         0.242528         0.350107
 C         1.411866         0.065558        -0.014154
 C         2.108008         0.797221        -1.247886
 C         3.367983        -0.095220        -1.103274
 C         2.825111        -1.507276        -1.483089
 C         2.094423        -1.381009        -0.054196
 O         1.611750        -2.572967         0.501577
 C         3.210154        -0.535747         0.466241
 O         2.308089         0.480938         1.068331
 H        -0.257169        -0.363397         1.202920
 H        -0.365260         1.311163         0.572684
 H        -0.657819         0.027991        -0.566135
 H         1.438488         0.723008        -2.154534
 H         2.231730         1.941763        -1.007755
 H         4.261644         0.305293        -1.492934
 H         2.169468        -1.935638        -2.229293
 H         3.657192        -2.332248        -1.340188
 H         0.824742        -2.475852         1.116901
 H         3.949636        -0.928837         1.150735
