19
Iteration:   957
 C        -0.015078         0.208850         0.407714
 C         1.410970         0.026193         0.069360
 C         1.952166         0.743805        -1.185560
 C         3.338385        -0.086032        -1.167629
 C         2.812474        -1.561418        -1.488187
 C         2.117723        -1.398589        -0.133910
 O         1.566081        -2.502711         0.510348
 C         3.308885        -0.420271         0.392151
 O         2.371631         0.429347         1.068995
 H        -0.269232        -0.283577         1.363888
 H        -0.131169         1.281901         0.514497
 H        -0.673925        -0.128314        -0.301263
 H         1.548140         0.726286        -2.234967
 H         2.068527         1.865748        -0.966273
 H         4.235488         0.349085        -1.547504
 H         2.100157        -1.775271        -2.362087
 H         3.671672        -2.264037        -1.305508
 H         0.987416        -2.216454         1.204679
 H         4.290428        -0.702379         0.973229
