19
Iteration:  4451charge 0 multiplicity 1
 C        -0.015829         0.354736         0.398035
 C         1.431323         0.014522         0.016650
 C         2.105945         0.784265        -1.216198
 C         3.386973        -0.080084        -1.164008
 C         2.860088        -1.451825        -1.524247
 C         2.076266        -1.493561        -0.136567
 O         1.570840        -2.587035         0.636161
 C         3.204561        -0.480011         0.415853
 O         2.286047         0.449047         1.101123
 H        -0.242853        -0.119254         1.324545
 H        -0.259538         1.430332         0.280952
 H        -0.583536        -0.074254        -0.433830
 H         1.612749         0.559289        -2.220053
 H         2.186825         1.889673        -0.871969
 H         4.380983         0.163847        -1.469534
 H         2.329923        -1.729356        -2.422709
 H         3.622621        -2.239837        -1.556590
 H         0.639931        -2.788679         0.247192
 H         3.948148        -0.827657         1.197938
