19
Iteration:  1106
 C         0.011236         0.157579         0.463591
 C         1.416829         0.057356        -0.028827
 C         1.989664         0.780252        -1.195703
 C         3.336668        -0.116609        -1.242753
 C         2.755700        -1.498859        -1.481194
 C         2.061275        -1.353635        -0.118787
 O         1.629816        -2.468844         0.561477
 C         3.276606        -0.487108         0.410130
 O         2.415001         0.416155         1.083899
 H        -0.173490        -0.116909         1.562319
 H        -0.080022         1.270532         0.844324
 H        -0.802509        -0.094334        -0.212879
 H         1.458449         0.764015        -2.095458
 H         2.148968         1.829400        -0.868844
 H         4.198084         0.213133        -1.768577
 H         2.144280        -1.858343        -2.397370
 H         3.438006        -2.425789        -1.226554
 H         0.617876        -2.473443         0.459525
 H         4.101829        -0.898501         1.036494
