19
Iteration:  2034
 C         0.030104         0.312019         0.526160
 C         1.330610        -0.042440        -0.023157
 C         2.089358         0.805152        -1.173825
 C         3.328639        -0.111494        -1.206178
 C         2.699325        -1.552437        -1.562994
 C         2.115901        -1.396967        -0.131541
 O         1.611930        -2.489183         0.606292
 C         3.319989        -0.475635         0.383625
 O         2.345787         0.409164         1.044546
 H         0.118783        -0.408286         1.348366
 H        -0.020617         1.389948         0.771846
 H        -0.744410        -0.070982        -0.058733
 H         1.674026         0.668251        -2.138086
 H         2.162381         1.820990        -0.746933
 H         4.241612         0.240677        -1.684874
 H         1.995321        -1.464598        -2.298739
 H         3.394805        -2.319232        -1.668256
 H         0.612579        -2.394362         0.792581
 H         4.213697        -0.809548         0.861964
