19
Iteration:   290charge 0 multiplicity 1
 C        -0.095619         0.270215         0.415171
 C         1.406755        -0.001542        -0.020106
 C         1.962789         0.813073        -1.121340
 C         3.355632        -0.028297        -1.188095
 C         2.865768        -1.613071        -1.554309
 C         2.236976        -1.408182        -0.129737
 O         1.665081        -2.397032         0.635787
 C         3.279083        -0.488371         0.364594
 O         2.260623         0.297876         1.086133
 H        -0.399099        -0.243957         1.300359
 H        -0.365368         1.304000         0.538654
 H        -0.859819        -0.092510        -0.370193
 H         1.404822         0.936697        -2.103326
 H         2.358116         1.759187        -0.770091
 H         4.192897         0.521125        -1.813675
 H         2.235941        -1.849720        -2.414190
 H         3.654036        -2.388241        -1.335584
 H         0.646135        -2.341402         0.598904
 H         4.127340        -0.715595         0.967066
