19
Iteration:  2573charge 0 multiplicity 1
 C         0.005539         0.286472         0.366426
 C         1.387103         0.028119         0.027241
 C         1.976133         0.688365        -1.252529
 C         3.352565        -0.079727        -1.152172
 C         2.842009        -1.491182        -1.459401
 C         2.165561        -1.406250        -0.091851
 O         1.547610        -2.509697         0.540165
 C         3.264875        -0.454650         0.397727
 O         2.363554         0.408046         1.115291
 H        -0.475266        -0.580237         0.902396
 H        -0.137258         1.180396         0.919977
 H        -0.517226         0.209697        -0.671340
 H         1.342033         0.306934        -2.103761
 H         1.681737         1.736469        -1.242735
 H         4.346836         0.423144        -1.366764
 H         2.085577        -1.595191        -2.212591
 H         3.657703        -2.308957        -1.562107
 H         1.191437        -2.053668         1.355694
 H         4.259935        -0.714957         0.808843
