19
Iteration:   406
 C        -0.037574         0.182982         0.434303
 C         1.337532         0.027624         0.027059
 C         2.068629         0.681470        -1.231131
 C         3.411385        -0.086287        -1.134307
 C         2.789202        -1.454698        -1.617184
 C         2.120618        -1.399327        -0.196826
 O         1.584199        -2.439659         0.577413
 C         3.253072        -0.513353         0.429015
 O         2.313626         0.454219         1.121411
 H        -0.228576        -0.474047         1.326805
 H        -0.176751         1.285138         0.722053
 H        -0.633826        -0.286951        -0.313741
 H         1.467209         0.554558        -2.150543
 H         2.181439         1.806764        -0.985664
 H         4.375015         0.383787        -1.600979
 H         1.862822        -1.372784        -2.269001
 H         3.530248        -2.198791        -1.836220
 H         1.859100        -2.396557         1.565433
 H         4.017366        -0.960490         1.164746
