19
Iteration:    43charge 0 multiplicity 1
 C        -0.030427         0.136516         0.399191
 C         1.370295         0.068952        -0.008295
 C         2.019511         0.801654        -1.172575
 C         3.302798        -0.094166        -1.147180
 C         2.859981        -1.539231        -1.392997
 C         2.177801        -1.403067        -0.112843
 O         1.605834        -2.575960         0.483237
 C         3.265905        -0.482595         0.502979
 O         2.336339         0.527470         0.998296
 H        -0.225827        -0.151672         1.405279
 H        -0.296174         1.174669         0.346328
 H        -0.744399        -0.220245        -0.363918
 H         1.544223         0.719045        -2.063273
 H         2.249102         1.814770        -0.947805
 H         4.051182         0.368272        -1.654556
 H         2.192614        -1.728100        -2.207141
 H         3.733654        -2.233299        -1.319858
 H         0.591509        -2.453540         0.512760
 H         4.180134        -0.540116         1.106002
