19
Iteration:  1548
 C         0.057235         0.163247         0.585773
 C         1.493019         0.079564         0.063106
 C         2.054924         0.805062        -1.207078
 C         3.230138        -0.146373        -1.249533
 C         2.618448        -1.548659        -1.487578
 C         2.063351        -1.357060        -0.103619
 O         1.455909        -2.398087         0.523642
 C         3.331672        -0.552547         0.416998
 O         2.513393         0.466563         1.034450
 H        -0.163108        -0.583983         1.303622
 H        -0.179182         1.129974         0.972979
 H        -0.499908         0.059105        -0.388374
 H         1.254618         0.819086        -1.993003
 H         2.372456         1.822751        -1.119082
 H         4.186629         0.202872        -1.760073
 H         1.767873        -1.622111        -2.333369
 H         3.441157        -2.265551        -1.514924
 H         1.792802        -3.257576         0.138405
 H         4.267167        -0.877224         0.890690
