19
Iteration:  1146
 C        -0.101255         0.366783         0.403405
 C         1.406423         0.013563         0.099095
 C         1.972400         0.747045        -1.219007
 C         3.348385        -0.081818        -1.249531
 C         2.724345        -1.501379        -1.524818
 C         2.179508        -1.438720        -0.082572
 O         1.522343        -2.521191         0.619002
 C         3.329590        -0.477953         0.364397
 O         2.457585         0.400995         1.122778
 H        -0.194516        -0.181901         1.264137
 H        -0.181272         1.371406         0.612672
 H        -0.880472        -0.017373        -0.293917
 H         1.294588         0.617363        -2.166818
 H         2.030660         1.836309        -1.094974
 H         4.282943         0.331680        -1.744569
 H         2.057184        -1.310380        -2.296749
 H         3.497273        -2.280257        -1.455680
 H         1.864036        -3.334315         0.269214
 H         4.175006        -0.806298         0.893951
