19
Iteration:  4242
 C         0.031774         0.079324         0.230851
 C         1.476736         0.033707         0.001643
 C         2.057514         0.786417        -1.091571
 C         3.379967        -0.103511        -1.151174
 C         2.830027        -1.530970        -1.472965
 C         2.145776        -1.328784        -0.111233
 O         1.360658        -2.302557         0.576129
 C         3.276978        -0.453497         0.420234
 O         2.306081         0.350454         1.149411
 H        -0.161843        -0.186076         1.247195
 H        -0.409218         1.029250        -0.146162
 H        -0.537107        -0.691803        -0.397038
 H         1.607857         0.639860        -2.158573
 H         2.210030         1.882116        -0.863412
 H         4.292332         0.158872        -1.668589
 H         2.111202        -1.459681        -2.383634
 H         3.645368        -2.303950        -1.677720
 H         1.857755        -2.997417         0.933768
 H         4.256352        -0.787271         0.944358
