19
Iteration:  4025
 C        -0.107998         0.325496         0.330336
 C         1.398973        -0.018395        -0.025635
 C         2.023400         0.740603        -1.235071
 C         3.384274        -0.038174        -1.199700
 C         2.829148        -1.470147        -1.381451
 C         2.181754        -1.393200        -0.082278
 O         1.500333        -2.486083         0.449777
 C         3.294194        -0.568131         0.530855
 O         2.306611         0.406484         1.105698
 H        -0.330398         0.207096         1.420847
 H        -0.329796         1.452429         0.026489
 H        -0.767460        -0.480716        -0.280140
 H         1.691787         0.468516        -2.232069
 H         2.119174         1.768849        -0.845038
 H         4.343179         0.264357        -1.501852
 H         2.377984        -1.673076        -2.351337
 H         3.673925        -2.301406        -1.354308
 H         1.959881        -2.635856         1.344571
 H         4.232906        -0.898904         0.976620
