19
Iteration:  1566
 C         0.011038         0.191359         0.585820
 C         1.416682         0.090541         0.080422
 C         2.018703         0.745556        -1.151943
 C         3.389508        -0.174640        -1.210512
 C         2.607021        -1.516538        -1.531553
 C         2.059784        -1.350781        -0.111057
 O         1.453042        -2.390972         0.518473
 C         3.271221        -0.501136         0.264565
 O         2.532706         0.442196         1.053716
 H         0.041621        -0.693120         1.295920
 H        -0.143616         1.169256         1.162877
 H        -0.789588         0.166170        -0.130588
 H         1.672995         0.515321        -2.188751
 H         2.219319         1.866996        -0.931426
 H         4.287814         0.219091        -1.855977
 H         2.036264        -1.552764        -2.387056
 H         3.258605        -2.381704        -1.314215
 H         2.155362        -3.091867         0.686089
 H         4.132347        -1.006269         0.736422
