19
Iteration:   579
 C        -0.067866         0.190827         0.345395
 C         1.392690        -0.053986        -0.024600
 C         1.987363         0.777757        -1.153531
 C         3.325875        -0.056100        -1.227605
 C         2.785883        -1.457337        -1.513618
 C         2.155619        -1.401840        -0.112549
 O         1.509823        -2.406821         0.637644
 C         3.307312        -0.442503         0.410964
 O         2.393829         0.323636         1.119959
 H        -0.269124        -0.468789         1.192215
 H        -0.259256         1.285993         0.489301
 H        -0.571149        -0.048116        -0.557499
 H         1.512769         0.957764        -2.151218
 H         2.209514         1.823933        -1.036414
 H         4.220352         0.325724        -1.704565
 H         2.086152        -1.716367        -2.343207
 H         3.608026        -2.178039        -1.601676
 H         1.979504        -2.755784         1.358058
 H         4.311928        -0.745085         0.883695
