19
Iteration:  2669charge 0 multiplicity 1
 C        -0.049375         0.129918         0.284422
 C         1.400919        -0.021028         0.027146
 C         2.000284         0.728642        -1.131519
 C         3.316210        -0.101028        -1.156465
 C         2.827140        -1.532044        -1.497604
 C         2.164531        -1.397596        -0.088439
 O         1.413090        -2.304979         0.590730
 C         3.317932        -0.400817         0.378611
 O         2.437335         0.424530         1.123129
 H        -0.335717        -0.349569         1.227350
 H        -0.338250         1.164451         0.305081
 H        -0.685719        -0.508383        -0.441941
 H         1.419421         0.569122        -2.072036
 H         1.985992         1.790692        -0.988499
 H         4.339531         0.127367        -1.444266
 H         2.265579        -1.757666        -2.402405
 H         3.656124        -2.300841        -1.448687
 H         1.913073        -3.123727         0.572445
 H         4.372009        -0.551719         0.823349
