19
Iteration:  3366
 C        -0.110430         0.296873         0.381848
 C         1.337694         0.049091         0.070483
 C         2.072153         0.771597        -1.193752
 C         3.343841        -0.115526        -1.146003
 C         2.861017        -1.535618        -1.511484
 C         2.106376        -1.404913        -0.082805
 O         1.583492        -2.585246         0.528745
 C         3.325856        -0.418467         0.413200
 O         2.348054         0.404697         1.078884
 H        -0.379381        -0.461035         1.271429
 H        -0.316716         1.265867         0.835709
 H        -0.653729         0.328511        -0.622659
 H         1.671843         0.559036        -2.223382
 H         2.364997         1.766286        -0.968850
 H         4.298763         0.385673        -1.558434
 H         2.079760        -1.546527        -2.381274
 H         3.609858        -2.261353        -1.450909
 H         0.702764        -2.419376         0.806257
 H         4.416349        -0.617728         0.734389
