19
Iteration:  2660charge 0 multiplicity 1
 C        -0.049817         0.128951         0.317952
 C         1.437337        -0.042980         0.015823
 C         1.994365         0.670619        -1.158085
 C         3.395850        -0.094075        -1.188594
 C         2.793866        -1.454618        -1.540381
 C         2.158545        -1.341402        -0.122476
 O         1.431293        -2.360012         0.657941
 C         3.285226        -0.443506         0.386112
 O         2.392691         0.406348         1.118894
 H        -0.408978        -0.055063         1.359511
 H        -0.246102         1.161539         0.198726
 H        -0.609726        -0.225198        -0.609917
 H         1.600155         0.501042        -2.184987
 H         2.079379         1.735535        -0.954832
 H         4.201837         0.683630        -1.543037
 H         2.242313        -1.574659        -2.427599
 H         3.562994        -2.261668        -1.179918
 H         1.908104        -3.168279         0.827950
 H         4.232148        -0.776829         0.905560
