19
Iteration:   720
 C        -0.032022         0.140721         0.364516
 C         1.400458        -0.060632         0.105262
 C         2.139835         0.844913        -1.232522
 C         3.339232        -0.058310        -1.206972
 C         2.716126        -1.488888        -1.539608
 C         2.179044        -1.444754        -0.088081
 O         1.520879        -2.474002         0.643898
 C         3.277941        -0.435027         0.454134
 O         2.302669         0.453468         1.045589
 H        -0.231117        -0.449360         1.307638
 H        -0.286696         1.254523         0.572400
 H        -0.691173        -0.023013        -0.525498
 H         1.569333         1.007944        -2.217099
 H         2.142607         1.900104        -1.004926
 H         4.332257         0.118354        -1.698408
 H         1.896497        -1.487662        -2.307842
 H         3.508375        -2.276441        -1.852551
 H         2.006772        -3.262620         0.650620
 H         4.259748        -0.594461         1.109402
