19
Iteration:  1497
 C         0.015911         0.328394         0.506534
 C         1.416436         0.099721         0.059228
 C         1.957045         0.755758        -1.147079
 C         3.330398        -0.157863        -1.207293
 C         2.686878        -1.510888        -1.600093
 C         2.038609        -1.337277        -0.182743
 O         1.699132        -2.428785         0.628247
 C         3.217866        -0.619164         0.312518
 O         2.491053         0.356359         1.118424
 H        -0.021225        -0.076748         1.553864
 H        -0.122618         1.440269         0.456303
 H        -0.743112         0.026215        -0.269325
 H         1.401212         0.632301        -2.061808
 H         1.950859         1.831801        -0.822951
 H         4.181436         0.052320        -1.695472
 H         1.932724        -1.620502        -2.320947
 H         3.520216        -2.213976        -1.515256
 H         0.839737        -2.685564         0.264110
 H         4.007291        -1.097854         0.915710
