19
Iteration:  4049charge 0 multiplicity 1
 C        -0.021155         0.262577         0.256039
 C         1.410603         0.056430         0.003021
 C         2.040286         0.756601        -1.138757
 C         3.325094        -0.049736        -1.147996
 C         2.893551        -1.554142        -1.511764
 C         2.151794        -1.388071        -0.149021
 O         1.418975        -2.476761         0.576389
 C         3.249636        -0.445876         0.379236
 O         2.335924         0.390679         1.191325
 H        -0.312386         0.085731         1.305518
 H        -0.412417         1.288255        -0.148623
 H        -0.389986        -0.685241        -0.357585
 H         1.535148         0.426892        -2.069534
 H         2.250375         1.875223        -0.913947
 H         4.293758         0.410356        -1.194833
 H         2.421460        -1.710060        -2.508728
 H         3.692596        -2.426400        -1.412643
 H         2.064148        -2.868468         1.126051
 H         4.105685        -0.833838         0.944075
