19
Iteration:  2777charge 0 multiplicity 1
 C        -0.126335         0.329619         0.315185
 C         1.383702         0.078124         0.071287
 C         1.973900         0.754567        -1.154477
 C         3.300686        -0.064493        -1.183910
 C         2.850680        -1.521376        -1.422851
 C         2.159076        -1.467102        -0.176584
 O         1.585078        -2.500932         0.555059
 C         3.286464        -0.512676         0.426876
 O         2.373189         0.383167         1.073129
 H        -0.591013        -0.195419         1.162742
 H        -0.237883         1.361931         0.597856
 H        -0.614722         0.344986        -0.724663
 H         1.382878         0.541692        -2.127034
 H         2.173782         1.831445        -0.979882
 H         4.217856         0.187015        -1.801111
 H         2.192169        -1.646548        -2.333301
 H         3.710155        -2.184023        -1.378669
 H         2.198169        -2.888336         1.251316
 H         4.229887        -0.797403         1.115522
