19
Iteration:  3472
 C        -0.078101         0.090480         0.370637
 C         1.410550         0.060900         0.026546
 C         2.121865         0.761734        -1.212882
 C         3.396112        -0.067380        -1.133985
 C         2.736490        -1.509751        -1.499802
 C         2.146291        -1.372841        -0.069258
 O         1.438870        -2.429134         0.485101
 C         3.302228        -0.501766         0.469945
 O         2.388725         0.432678         1.099713
 H        -0.417859        -0.456787         1.170074
 H        -0.415778         1.126750         0.520465
 H        -0.718488        -0.332182        -0.453196
 H         1.655842         0.806632        -2.210109
 H         2.327416         1.880463        -1.175013
 H         4.281164         0.246880        -1.689154
 H         2.213907        -1.573015        -2.429066
 H         3.614917        -2.212322        -1.694153
 H         1.573572        -2.322929         1.417278
 H         4.151046        -0.921638         1.112386
