19
Iteration:  4351charge 0 multiplicity 1
 C        -0.062180         0.375450         0.330228
 C         1.397522         0.083111         0.008101
 C         2.082775         0.707900        -1.265739
 C         3.395885        -0.127974        -1.142651
 C         2.876892        -1.494463        -1.450295
 C         2.076075        -1.366116        -0.112708
 O         1.546467        -2.521912         0.533474
 C         3.175112        -0.489832         0.441173
 O         2.272318         0.376194         1.147813
 H        -0.414734        -0.502563         0.778734
 H        -0.148464         1.042506         1.165485
 H        -0.601063         0.502079        -0.632318
 H         1.399301         0.591783        -2.195471
 H         2.232010         1.789213        -1.015594
 H         4.373480         0.087208        -1.497629
 H         2.475690        -1.688197        -2.496586
 H         3.718572        -2.158376        -1.351407
 H         2.316863        -2.903228         1.027897
 H         4.166371        -0.850647         0.960146
