19
Iteration:  2046
 C         0.011622         0.237313         0.477401
 C         1.476138         0.049022         0.010241
 C         2.061121         0.711649        -1.140463
 C         3.297680        -0.124640        -1.213410
 C         2.680322        -1.484319        -1.564974
 C         2.101232        -1.419722        -0.124557
 O         1.619725        -2.502622         0.602056
 C         3.265303        -0.494761         0.356737
 O         2.388239         0.421553         1.073773
 H        -0.334668        -0.008057         1.469501
 H        -0.161720         1.355968         0.588176
 H        -0.704456        -0.002860        -0.299310
 H         1.572454         0.935866        -2.044608
 H         2.355397         1.729373        -0.833638
 H         4.097265         0.312685        -1.863155
 H         1.999568        -1.614902        -2.314495
 H         3.427063        -2.222483        -1.753022
 H         0.747912        -2.290335         0.908228
 H         4.096144        -0.767183         1.057234
