19
Iteration:   304charge 0 multiplicity 1
 C        -0.065149         0.218096         0.425209
 C         1.319454         0.066769        -0.018457
 C         2.076643         0.773311        -1.178311
 C         3.298391        -0.084362        -1.168972
 C         2.857274        -1.526424        -1.529767
 C         2.124707        -1.395638        -0.194698
 O         1.698569        -2.456577         0.640094
 C         3.225945        -0.526902         0.428830
 O         2.323684         0.421530         1.079481
 H        -0.146499        -0.405167         1.321744
 H        -0.227786         1.236632         0.752087
 H        -0.738269        -0.173606        -0.370883
 H         1.541755         0.659669        -2.212918
 H         2.038342         1.861691        -0.883197
 H         4.140959         0.309204        -1.505827
 H         2.362050        -1.684396        -2.429421
 H         3.758032        -2.170480        -1.547596
 H         0.764927        -2.559639         0.548956
 H         4.043778        -0.975852         0.990138
