19
Iteration:  1191charge 0 multiplicity 1
 C        -0.067903         0.231470         0.531544
 C         1.364320         0.130652         0.014547
 C         2.093722         0.799127        -1.229948
 C         3.364593        -0.113914        -1.265272
 C         2.749379        -1.494735        -1.571855
 C         2.080035        -1.411806        -0.108699
 O         1.558228        -2.528246         0.623807
 C         3.239151        -0.534063         0.348162
 O         2.434335         0.390064         1.090181
 H        -0.303132        -0.451091         1.298702
 H        -0.209734         1.265288         0.744429
 H        -0.766821         0.088019        -0.280741
 H         1.579176         0.787806        -2.255990
 H         2.190143         1.880133        -0.923996
 H         4.236862         0.357225        -1.733500
 H         1.920402        -1.512992        -2.232670
 H         3.631010        -2.250213        -1.540300
 H         1.743728        -2.392487         1.559532
 H         4.153371        -1.012233         0.656755
