19
Iteration:  4919
 C        -0.035928         0.249534         0.458804
 C         1.501576         0.143891         0.064740
 C         2.040752         0.821361        -1.164931
 C         3.325027        -0.113173        -1.161619
 C         2.743690        -1.532234        -1.486822
 C         2.116991        -1.397885        -0.141219
 O         1.335816        -2.422955         0.491162
 C         3.308625        -0.583101         0.436357
 O         2.490623         0.367008         1.088534
 H        -0.225854        -0.590382         1.140641
 H        -0.288589         1.238354         0.864989
 H        -0.574233         0.051540        -0.414253
 H         1.575069         0.837509        -2.232309
 H         2.256406         1.902253        -0.878089
 H         4.243418         0.295633        -1.689846
 H         2.311511        -1.558955        -2.505847
 H         3.495839        -2.347665        -1.351787
 H         1.688375        -3.307667         0.099651
 H         4.215673        -0.847986         0.972849
