19
Iteration:   783charge 0 multiplicity 1
 C        -0.070737         0.235535         0.420533
 C         1.430451        -0.029920        -0.045753
 C         2.028137         0.764947        -1.221465
 C         3.307023        -0.068427        -1.133869
 C         2.821120        -1.460386        -1.488546
 C         2.168499        -1.450747        -0.088864
 O         1.487489        -2.391971         0.579667
 C         3.298626        -0.460954         0.381720
 O         2.353685         0.363641         1.070981
 H         0.042887        -0.410854         1.333715
 H        -0.377634         1.246161         0.712430
 H        -1.060405        -0.036317        -0.275314
 H         1.583019         0.545685        -2.185612
 H         2.101448         1.850215        -1.026312
 H         4.170581         0.290849        -1.595794
 H         2.211871        -1.652746        -2.326896
 H         3.632538        -2.229647        -1.647450
 H         2.095762        -2.949937         1.062446
 H         4.273522        -0.723919         0.991948
