19
Iteration:     2charge 0 multiplicity 1
 C        -0.063390         0.172646         0.334611
 C         1.395892         0.036269         0.001242
 C         2.038893         0.749341        -1.198006
 C         3.346968        -0.074439        -1.119583
 C         2.826206        -1.500710        -1.460633
 C         2.124534        -1.387988        -0.097542
 O         1.611010        -2.503787         0.522079
 C         3.249538        -0.445846         0.428075
 O         2.320253         0.420484         1.081013
 H        -0.351008        -0.487599         1.177339
 H        -0.240670         1.227017         0.631194
 H        -0.680862        -0.110319        -0.504752
 H         1.495311         0.607750        -2.176887
 H         2.167062         1.836651        -1.020786
 H         4.258161         0.361349        -1.614345
 H         2.220372        -1.650627        -2.376253
 H         3.597704        -2.255002        -1.440133
 H         1.393365        -2.241594         1.406272
 H         4.152495        -0.714588         0.948880
