19
Iteration:   724charge 0 multiplicity 1
 C        -0.073136         0.163071         0.373125
 C         1.398471        -0.079100         0.069348
 C         2.126222         0.879962        -1.238331
 C         3.332174        -0.082819        -1.208642
 C         2.733885        -1.496175        -1.510012
 C         2.186984        -1.435020        -0.070779
 O         1.516415        -2.458802         0.620148
 C         3.295029        -0.444493         0.446860
 O         2.348523         0.433080         1.044476
 H        -0.420282        -0.456739         1.195342
 H        -0.319969         1.282424         0.638883
 H        -0.579702        -0.217940        -0.523803
 H         1.499926         0.915713        -2.234596
 H         2.192895         1.964316        -0.876551
 H         4.313547         0.317173        -1.725210
 H         1.820990        -1.485281        -2.238206
 H         3.400937        -2.304133        -1.705128
 H         2.121256        -3.285855         0.727249
 H         4.070070        -0.548181         1.112738
