19
Iteration:  4440charge 0 multiplicity 1
 C        -0.074269         0.275282         0.297798
 C         1.411361         0.081082         0.052076
 C         2.096482         0.709130        -1.136257
 C         3.346444        -0.109691        -1.165131
 C         2.858613        -1.539634        -1.553103
 C         2.093074        -1.427471        -0.125632
 O         1.562344        -2.499904         0.585895
 C         3.248651        -0.493546         0.491780
 O         2.372676         0.449778         1.097660
 H        -0.520571        -0.246122         1.117751
 H        -0.270450         1.318430         0.586455
 H        -0.620120        -0.058616        -0.587440
 H         1.445994         0.705394        -2.075370
 H         2.202670         1.846236        -0.933487
 H         4.211293         0.322647        -1.630576
 H         2.286511        -1.463187        -2.461453
 H         3.725278        -2.196498        -1.506326
 H         0.583278        -2.644847         0.545285
 H         4.172996        -0.892123         1.015839
