19
Iteration:  4379
 C        -0.076596         0.180098         0.303215
 C         1.385382         0.043084        -0.065780
 C         2.141514         0.835369        -1.161935
 C         3.381524        -0.119357        -1.054819
 C         2.758808        -1.576857        -1.508216
 C         2.171735        -1.406688        -0.124509
 O         1.514814        -2.408636         0.585038
 C         3.213736        -0.524886         0.446022
 O         2.321696         0.420383         1.041947
 H        -0.439487        -0.844452         0.719607
 H        -0.177469         0.877231         1.182734
 H        -0.635801         0.532336        -0.569888
 H         1.678074         0.864068        -2.105305
 H         2.322789         1.809755        -0.732155
 H         4.429354         0.119156        -1.471883
 H         2.109226        -1.589433        -2.381438
 H         3.648269        -2.210857        -1.845855
 H         1.775748        -2.262416         1.561430
 H         4.120551        -0.818950         0.939710
