19
Iteration:  2059charge 0 multiplicity 1
 C        -0.041608         0.276669         0.389309
 C         1.405486         0.055769         0.151912
 C         2.021857         0.848228        -1.208126
 C         3.264878        -0.130198        -1.240441
 C         2.671651        -1.505023        -1.535861
 C         2.135262        -1.396485        -0.108535
 O         1.621429        -2.514199         0.584320
 C         3.276831        -0.551965         0.372803
 O         2.488923         0.395031         1.099145
 H        -0.303136        -0.205694         1.285121
 H        -0.235290         1.384928         0.290639
 H        -0.566134        -0.319794        -0.446645
 H         1.272827         0.622648        -1.938272
 H         2.269236         1.862505        -0.950563
 H         4.304249         0.177754        -1.600917
 H         2.075563        -1.484098        -2.429277
 H         3.397357        -2.355128        -1.458773
 H         0.811898        -2.206732         1.082653
 H         4.338543        -0.902729         0.720395
