19
Iteration:  4158
 C        -0.064605         0.369724         0.358142
 C         1.389217         0.102428        -0.010356
 C         2.071856         0.637496        -1.266247
 C         3.393204        -0.030998        -1.140217
 C         2.939689        -1.524265        -1.463752
 C         2.118566        -1.459278        -0.109386
 O         1.481571        -2.512191         0.606426
 C         3.252546        -0.444050         0.445226
 O         2.257176         0.390996         1.097596
 H        -0.502846        -0.580513         0.793911
 H        -0.162983         1.164205         1.163214
 H        -0.855519         0.463690        -0.474376
 H         1.666580         0.590736        -2.236344
 H         2.207191         1.738575        -1.127748
 H         4.372208         0.325260        -1.482841
 H         2.363918        -1.639911        -2.325683
 H         3.758759        -2.257795        -1.193056
 H         1.938084        -3.329876         0.157131
 H         4.115674        -0.512738         1.045019
