19
Iteration:   475charge 0 multiplicity 1
 C        -0.023726         0.277280         0.390945
 C         1.434757         0.011788         0.047936
 C         1.941174         0.656837        -1.229854
 C         3.335280        -0.007290        -1.093967
 C         2.777923        -1.493191        -1.496566
 C         2.130935        -1.413934        -0.070010
 O         1.591189        -2.485927         0.520258
 C         3.324030        -0.439307         0.374678
 O         2.396760         0.361195         1.102454
 H        -0.569234        -0.226237         1.186994
 H        -0.130451         1.342787         0.549381
 H        -0.634655        -0.193621        -0.474497
 H         1.461458         0.285604        -2.096694
 H         1.868303         1.690918        -1.061111
 H         4.289732         0.458055        -1.617291
 H         2.138140        -1.410354        -2.412088
 H         3.626126        -2.211135        -1.615063
 H         0.821749        -2.240408         1.047214
 H         4.220317        -0.776295         0.795191
