19
Iteration:  3436charge 0 multiplicity 1
 C        -0.092694         0.249707         0.334737
 C         1.421289         0.099084         0.039684
 C         2.052742         0.804154        -1.211728
 C         3.270104        -0.048308        -1.168374
 C         2.816690        -1.542265        -1.502115
 C         2.171157        -1.433866        -0.091631
 O         1.550167        -2.541673         0.501916
 C         3.291810        -0.520961         0.454130
 O         2.407812         0.409936         1.138915
 H        -0.355831        -0.035395         1.388070
 H        -0.213574         1.366903         0.182141
 H        -0.599737        -0.196616        -0.510162
 H         1.491228         0.635274        -2.082502
 H         2.265382         1.807516        -0.843166
 H         4.205007         0.226743        -1.624332
 H         2.079530        -1.758760        -2.283757
 H         3.754502        -2.194682        -1.448990
 H         0.706983        -2.458365         0.938021
 H         4.105912        -0.745150         1.114907
