19
Iteration:   321charge 0 multiplicity 1
 C        -0.011033         0.137906         0.449542
 C         1.415035         0.067846        -0.007829
 C         2.027839         0.756924        -1.301216
 C         3.400409        -0.031810        -1.078464
 C         2.773862        -1.425908        -1.473698
 C         1.990882        -1.417867        -0.078844
 O         1.673999        -2.558184         0.625667
 C         3.222436        -0.475991         0.387806
 O         2.357840         0.456869         1.049353
 H        -0.227503        -0.535733         1.290526
 H        -0.324232         1.193136         0.679427
 H        -0.644615         0.057257        -0.482600
 H         1.488303         0.570095        -2.187275
 H         2.258818         1.790481        -1.247030
 H         4.514281         0.410661        -1.496521
 H         2.235068        -1.404859        -2.531465
 H         3.314551        -2.404979        -1.367780
 H         0.861214        -2.806269         0.163878
 H         4.121734        -0.747581         0.958827
