19
Iteration:  3585charge 0 multiplicity 1
 C        -0.099393         0.261385         0.393011
 C         1.365172         0.101261        -0.005661
 C         2.070215         0.787571        -1.184118
 C         3.398833        -0.086411        -1.072590
 C         2.831148        -1.610723        -1.465842
 C         2.152578        -1.437196        -0.124960
 O         1.556612        -2.512606         0.569743
 C         3.204400        -0.498219         0.451598
 O         2.337921         0.480373         1.067891
 H        -0.279784        -0.372760         1.280961
 H        -0.326005         1.234467         0.591496
 H        -0.636459         0.013855        -0.447433
 H         1.746604         0.816385        -2.310189
 H         2.303235         1.867765        -1.143010
 H         4.305481         0.294113        -1.643290
 H         2.247381        -1.762526        -2.426220
 H         3.718690        -2.146897        -1.525334
 H         1.296498        -3.248700        -0.049381
 H         4.167933        -0.556742         0.924038
