19
Iteration:  4708charge 0 multiplicity 1
 C        -0.045007         0.171007         0.350175
 C         1.410761         0.053603         0.058944
 C         2.126513         0.765350        -1.080941
 C         3.419332        -0.080515        -1.155034
 C         2.752471        -1.463125        -1.503487
 C         2.051898        -1.378341        -0.118762
 O         1.350306        -2.378011         0.573057
 C         3.306948        -0.562710         0.394472
 O         2.460765         0.385356         1.071556
 H        -0.431766        -0.293750         1.219414
 H        -0.429639         1.161833         0.324364
 H        -0.605202        -0.212241        -0.554496
 H         1.599361         0.768959        -2.117161
 H         2.544946         1.850147        -1.027479
 H         4.208032         0.353773        -1.719387
 H         2.348638        -1.499419        -2.450429
 H         3.580785        -2.176160        -1.580965
 H         1.663272        -3.337044         0.640317
 H         4.198790        -0.957612         0.955646
