19
Iteration:  3132
 C        -0.126123         0.244343         0.279334
 C         1.383272         0.096553         0.014835
 C         2.062854         0.780044        -1.190647
 C         3.255032        -0.090628        -1.087519
 C         2.827968        -1.569683        -1.521416
 C         2.185295        -1.393594        -0.100275
 O         1.551335        -2.449102         0.538022
 C         3.307962        -0.571556         0.409007
 O         2.364083         0.415882         1.105197
 H        -0.439947        -0.532170         1.071861
 H        -0.442455         1.273249         0.769570
 H        -0.584516         0.168077        -0.711958
 H         1.386719         0.648269        -2.123340
 H         2.348707         1.889151        -0.889983
 H         4.189939         0.404307        -1.457616
 H         2.114751        -1.767251        -2.355106
 H         3.691295        -2.295689        -1.291380
 H         2.110052        -2.714826         1.361502
 H         4.155577        -0.654069         1.031048
