19
Iteration:  1874
 C         0.012286         0.239543         0.572230
 C         1.455754         0.068461         0.045176
 C         1.980132         0.758466        -1.171956
 C         3.279994        -0.060216        -1.262138
 C         2.656140        -1.554611        -1.470317
 C         2.128087        -1.393459        -0.130212
 O         1.510670        -2.498978         0.480675
 C         3.356124        -0.484387         0.356396
 O         2.507533         0.395141         1.080203
 H        -0.086415        -0.141332         1.548088
 H        -0.278878         1.240498         0.519679
 H        -0.612180        -0.071887        -0.268757
 H         1.409173         0.600265        -2.087180
 H         2.106680         1.742241        -0.849180
 H         4.115548         0.221030        -1.859728
 H         2.081965        -1.407907        -2.404128
 H         3.440063        -2.378439        -1.562722
 H         0.790416        -2.334001         1.176034
 H         4.262806        -0.863743         0.880613
