19
Iteration:  1759
 C         0.020696         0.255539         0.503880
 C         1.467572         0.068352         0.059991
 C         2.088432         0.807325        -1.135187
 C         3.270849        -0.115284        -1.258186
 C         2.529230        -1.509131        -1.530451
 C         2.117949        -1.383107        -0.094692
 O         1.519094        -2.502455         0.571755
 C         3.323405        -0.530193         0.372880
 O         2.474080         0.418929         1.036192
 H        -0.146673        -0.494009         1.304488
 H        -0.356499         1.158605         1.037481
 H        -0.542445         0.343295        -0.394216
 H         1.427940         0.834401        -2.042755
 H         2.278881         1.907329        -0.936697
 H         4.216286         0.251266        -1.763893
 H         1.746536        -1.359480        -2.361434
 H         3.134421        -2.454038        -1.576708
 H         2.089656        -3.333920         0.611906
 H         4.378741        -0.803893         0.716962
