19
Iteration:  4110charge 0 multiplicity 1
 C        -0.075625         0.111566         0.291391
 C         1.422450         0.086646         0.016309
 C         2.153505         0.807084        -1.214206
 C         3.371833        -0.135556        -1.146120
 C         2.824005        -1.512804        -1.449033
 C         2.116014        -1.411904        -0.062547
 O         1.424289        -2.449204         0.615224
 C         3.296950        -0.377341         0.451463
 O         2.329927         0.430581         1.094343
 H        -0.483411        -0.689580         0.850951
 H        -0.380198         1.002165         0.820274
 H        -0.625551        -0.031697        -0.642805
 H         1.699739         0.586189        -2.194951
 H         2.359330         1.846491        -1.292853
 H         4.336967         0.212778        -1.512791
 H         2.258282        -1.498450        -2.379806
 H         3.638123        -2.191547        -1.353708
 H         1.494660        -3.203992         0.087566
 H         4.254410        -0.705502         0.969358
