19
Iteration:  3745charge 0 multiplicity 1
 C        -0.114925         0.235001         0.334059
 C         1.349392        -0.048181         0.028464
 C         2.022344         0.743243        -1.233963
 C         3.371770        -0.061491        -1.166613
 C         2.977094        -1.544010        -1.460482
 C         2.172204        -1.383797        -0.129276
 O         1.430717        -2.402996         0.571129
 C         3.292543        -0.442339         0.454193
 O         2.304930         0.414845         1.129392
 H        -0.508401        -0.441996         1.138599
 H        -0.204607         1.290055         0.794803
 H        -0.655260         0.365833        -0.655049
 H         1.586289         0.554167        -2.173053
 H         2.388233         1.725663        -1.001739
 H         4.298575         0.130928        -1.670240
 H         2.543046        -1.565347        -2.453858
 H         3.668072        -2.406828        -1.329890
 H         1.960557        -3.237255         0.660454
 H         4.231848        -0.746696         0.910188
