19
Iteration:  1664
 C         0.099353         0.352103         0.557749
 C         1.447508         0.008348         0.038368
 C         2.090810         0.820234        -1.191184
 C         3.226172        -0.070698        -1.176015
 C         2.482867        -1.493024        -1.556548
 C         2.089507        -1.442643        -0.016459
 O         1.639652        -2.621346         0.480435
 C         3.275112        -0.518979         0.322460
 O         2.511776         0.410659         1.064066
 H        -0.248723        -0.082898         1.540997
 H        -0.240790         1.434685         0.476888
 H        -0.421567        -0.042334        -0.339467
 H         1.419354         0.803386        -2.076948
 H         2.189031         1.945158        -0.900775
 H         4.179786         0.232745        -1.797809
 H         1.756082        -1.421219        -2.364592
 H         3.247953        -2.346042        -1.583583
 H         0.886574        -2.444479         1.092843
 H         4.219812        -0.747886         0.838098
