19
Iteration:  4584
 C        -0.005612         0.147092         0.373185
 C         1.435379         0.045243        -0.065512
 C         2.096988         0.757980        -1.151384
 C         3.368804        -0.119137        -1.084502
 C         2.803108        -1.486794        -1.500668
 C         2.106755        -1.362353        -0.124354
 O         1.424102        -2.352945         0.510629
 C         3.260261        -0.583793         0.437035
 O         2.377463         0.392804         1.043251
 H        -0.424948        -0.731488         0.918574
 H        -0.213410         1.015511         1.008671
 H        -0.595282         0.271655        -0.486042
 H         1.593878         0.845879        -2.157753
 H         2.177598         1.821624        -0.699749
 H         4.255258         0.315409        -1.638545
 H         2.262534        -1.490656        -2.400697
 H         3.602355        -2.260899        -1.301247
 H         1.643539        -2.361848         1.502769
 H         4.016966        -1.007412         1.117729
