19
Iteration:   670
 C        -0.133337         0.207976         0.432057
 C         1.396372         0.043095         0.077813
 C         2.023792         0.734888        -1.183098
 C         3.297790        -0.124480        -1.195015
 C         2.928126        -1.503929        -1.493035
 C         2.132579        -1.397192        -0.113341
 O         1.475657        -2.440094         0.573050
 C         3.320124        -0.465650         0.328383
 O         2.399954         0.453384         1.135703
 H        -0.420070        -0.394015         1.237785
 H        -0.441005         1.230893         0.556388
 H        -0.662395         0.013943        -0.465558
 H         1.340071         0.587891        -1.987054
 H         2.114095         1.828947        -1.266876
 H         4.145576         0.500151        -1.642702
 H         2.511829        -1.937791        -2.436128
 H         3.756344        -2.106240        -1.269916
 H         1.813195        -3.310851         0.209145
 H         4.179909        -0.722978         0.828170
