19
Iteration:  1626
 C        -0.028248         0.403146         0.552449
 C         1.395767         0.070690         0.171593
 C         2.017313         0.763513        -1.162673
 C         3.274629        -0.122670        -1.245694
 C         2.612396        -1.522472        -1.567813
 C         2.076597        -1.422365        -0.194934
 O         1.640491        -2.486914         0.519815
 C         3.271673        -0.542020         0.300852
 O         2.517691         0.316839         1.100083
 H        -0.477644        -0.166732         1.364591
 H        -0.083828         1.439435         0.798131
 H        -0.632321         0.133442        -0.329367
 H         1.666120         0.847417        -2.211074
 H         2.326406         1.757779        -0.958572
 H         4.102374         0.288217        -1.689363
 H         2.011939        -1.768668        -2.513068
 H         3.304105        -2.351093        -1.565927
 H         1.524559        -2.362679         1.507176
 H         4.225342        -0.802738         0.770973
