19
Iteration:  3788
 C        -0.075994         0.091233         0.318360
 C         1.447941         0.039627        -0.026263
 C         2.111697         0.791971        -1.251248
 C         3.407534        -0.182802        -1.127466
 C         2.784938        -1.501039        -1.500485
 C         2.169971        -1.390744        -0.017498
 O         1.474229        -2.386581         0.530645
 C         3.231958        -0.479750         0.515010
 O         2.345583         0.551387         1.096399
 H        -0.311288        -0.536619         1.172973
 H        -0.588277         1.067327         0.551996
 H        -0.665052        -0.414968        -0.515209
 H         1.550675         0.634101        -2.169820
 H         2.141645         1.796451        -0.743081
 H         4.343566         0.212111        -1.408141
 H         2.122748        -1.582339        -2.302342
 H         3.585729        -2.289203        -1.555213
 H         1.717249        -3.291308         0.136473
 H         3.984537        -0.806692         1.217603
