19
Iteration:  2655
 C        -0.042520         0.159391         0.330118
 C         1.416043        -0.028363         0.041635
 C         2.025861         0.666875        -1.222936
 C         3.414513        -0.020235        -1.171474
 C         2.817640        -1.438647        -1.516032
 C         2.125835        -1.355074        -0.122068
 O         1.454209        -2.382200         0.682558
 C         3.288255        -0.498695         0.395927
 O         2.358533         0.395448         1.097594
 H        -0.408774        -0.139961         1.295707
 H        -0.131841         1.292076         0.129079
 H        -0.610175        -0.246285        -0.507286
 H         1.498801         0.471139        -2.158151
 H         2.173220         1.721459        -0.924313
 H         4.016518         0.597711        -1.761493
 H         2.220831        -1.543916        -2.494444
 H         3.478999        -2.272016        -1.490409
 H         2.040259        -3.164757         0.935397
 H         4.102236        -0.912153         1.018989
