19
Iteration:  3005charge 0 multiplicity 1
 C        -0.071036         0.080092         0.459740
 C         1.357341         0.058322        -0.047900
 C         2.197757         0.815778        -1.238367
 C         3.411979        -0.111451        -1.213103
 C         2.746098        -1.495592        -1.483886
 C         2.106658        -1.324804        -0.133717
 O         1.450639        -2.491584         0.656719
 C         3.267178        -0.449787         0.413020
 O         2.350885         0.500144         1.097984
 H        -0.175198        -0.781140         1.143318
 H        -0.320587         1.110476         0.743542
 H        -0.753954        -0.166810        -0.480128
 H         1.580780         0.817099        -2.185648
 H         2.497474         1.768256        -0.826200
 H         4.401625         0.221346        -1.520438
 H         2.279086        -1.729057        -2.507529
 H         3.413329        -2.289136        -1.430892
 H         1.694464        -3.348056         0.361435
 H         4.294471        -0.765593         0.903918
