19
Iteration:  4256
 C        -0.050306         0.044507         0.280706
 C         1.412386        -0.033124        -0.007365
 C         2.184465         0.790021        -1.190592
 C         3.469654        -0.072845        -1.101958
 C         2.782383        -1.417596        -1.507845
 C         2.043040        -1.405314        -0.133015
 O         1.340038        -2.358215         0.623889
 C         3.300416        -0.478601         0.401942
 O         2.368430         0.447698         1.105207
 H        -0.208264        -0.007926         1.369305
 H        -0.514911         1.055413         0.119785
 H        -0.501604        -0.835430        -0.251289
 H         1.631394         0.763410        -2.105855
 H         2.137413         1.806380        -0.776896
 H         4.425427         0.299663        -1.382549
 H         2.284235        -1.634217        -2.439037
 H         3.517314        -2.284130        -1.306767
 H         1.994310        -3.149434         0.558799
 H         4.121093        -0.726971         0.988148
