19
Iteration:   904
 C        -0.087117         0.171676         0.411625
 C         1.390402         0.059092         0.054347
 C         2.119577         0.766505        -1.170076
 C         3.331225        -0.099420        -1.177278
 C         2.753991        -1.524762        -1.508721
 C         2.057473        -1.338266        -0.214040
 O         1.582939        -2.424933         0.605011
 C         3.229869        -0.502627         0.449394
 O         2.373473         0.447860         1.057839
 H        -0.130696        -0.545171         1.258136
 H        -0.434611         1.162253         0.593166
 H        -0.768424        -0.172733        -0.439512
 H         1.776724         0.465606        -2.187612
 H         2.041099         1.848133        -1.049497
 H         4.298145         0.218463        -1.550733
 H         2.332639        -1.613913        -2.490892
 H         3.507396        -2.411056        -1.466362
 H         2.334024        -2.930036         0.840531
 H         4.124731        -0.931282         1.086111
