19
Iteration:   342
 C        -0.076243         0.165779         0.387776
 C         1.445291         0.051490         0.014564
 C         2.020445         0.731136        -1.176574
 C         3.295507        -0.113028        -1.138022
 C         2.767764        -1.508200        -1.474660
 C         2.205994        -1.396910        -0.078110
 O         1.586194        -2.501195         0.530531
 C         3.254590        -0.427019         0.468991
 O         2.382872         0.522484         1.064697
 H        -0.218580        -0.562716         1.220906
 H        -0.357989         1.185442         0.791776
 H        -0.830074         0.054092        -0.405264
 H         1.523278         0.510687        -2.075387
 H         2.148502         1.797509        -1.109711
 H         4.276949         0.163622        -1.783141
 H         1.866657        -1.720105        -2.190305
 H         3.626889        -2.185086        -1.563543
 H         1.276403        -3.108591        -0.159080
 H         4.162901        -0.673639         1.049232
