19
Iteration:  2131
 C        -0.014564         0.221911         0.556050
 C         1.396379         0.066617        -0.041513
 C         2.108225         0.840131        -1.301900
 C         3.344224        -0.148710        -1.187220
 C         2.760427        -1.474613        -1.489014
 C         2.004900        -1.354644        -0.102144
 O         1.534350        -2.452617         0.580608
 C         3.224293        -0.568234         0.348691
 O         2.395205         0.380186         1.055032
 H        -0.043919        -0.481988         1.464888
 H        -0.093407         1.285139         0.877277
 H        -0.780770        -0.007113        -0.140437
 H         1.659706         0.635836        -2.277968
 H         2.194939         1.864913        -0.835349
 H         4.363336         0.182534        -1.588789
 H         2.043130        -1.599561        -2.448233
 H         3.530054        -2.280324        -1.488979
 H         2.188241        -2.779841         1.293108
 H         4.106841        -0.814573         0.912121
