19
Iteration:  4382
 C        -0.059121         0.167170         0.303381
 C         1.391110         0.054887        -0.046241
 C         2.136873         0.831519        -1.157960
 C         3.370302        -0.143344        -1.074680
 C         2.769211        -1.564015        -1.529289
 C         2.198628        -1.431570        -0.128031
 O         1.503023        -2.408038         0.596707
 C         3.205178        -0.515127         0.456681
 O         2.320868         0.432495         1.047067
 H        -0.332683        -0.825046         0.599101
 H        -0.262878         0.898644         1.087892
 H        -0.694413         0.537117        -0.542261
 H         1.621438         0.911972        -2.124544
 H         2.283041         1.786161        -0.700050
 H         4.402683         0.070277        -1.391813
 H         2.108917        -1.539546        -2.431034
 H         3.576254        -2.145833        -1.810494
 H         1.671834        -2.183683         1.519895
 H         4.227444        -0.863081         0.944319
