19
Iteration:  2427
 C        -0.039841         0.219754         0.463870
 C         1.420136         0.074014        -0.009486
 C         2.094893         0.735624        -1.241861
 C         3.344690        -0.111975        -1.153225
 C         2.823725        -1.503773        -1.510444
 C         2.049296        -1.363487        -0.083785
 O         1.624497        -2.480501         0.559542
 C         3.229202        -0.454812         0.356783
 O         2.320738         0.358595         1.065981
 H        -0.123445        -0.238108         1.463417
 H        -0.303811         1.354455         0.592763
 H        -0.887305        -0.176815        -0.209375
 H         1.526703         0.505462        -2.147631
 H         2.373382         1.830448        -1.244089
 H         4.365892         0.268060        -1.369642
 H         2.104258        -1.415261        -2.397757
 H         3.364131        -2.440647        -1.546864
 H         1.289712        -2.104910         1.367533
 H         4.039393        -0.945911         0.956323
