19
Iteration:  2769
 C        -0.057588         0.371974         0.310984
 C         1.417211         0.007095         0.071496
 C         1.969665         0.742457        -1.174657
 C         3.312285        -0.053262        -1.195579
 C         2.862207        -1.547646        -1.457710
 C         2.118419        -1.423160        -0.089673
 O         1.563288        -2.475145         0.540156
 C         3.233896        -0.479151         0.381582
 O         2.365222         0.356600         1.099368
 H        -0.578823        -0.343053         1.049572
 H        -0.181382         1.417333         0.564051
 H        -0.702897         0.231805        -0.668050
 H         1.194885         0.565115        -1.975491
 H         1.984242         1.756623        -0.757059
 H         4.329969         0.423840        -1.490398
 H         2.417551        -1.965171        -2.343301
 H         3.781945        -2.266040        -1.367031
 H         2.301580        -2.810441         1.145934
 H         4.253836        -0.700195         0.791169
