19
Iteration:  4894
 C         0.017979         0.128985         0.447028
 C         1.507713         0.015842         0.015944
 C         2.107987         0.721953        -1.142062
 C         3.342894        -0.091412        -1.172857
 C         2.742216        -1.467765        -1.523448
 C         2.103794        -1.382561        -0.140646
 O         1.288168        -2.320775         0.571458
 C         3.267163        -0.520264         0.372114
 O         2.482297         0.411099         1.121771
 H        -0.140183        -0.845626         0.909412
 H         0.019447         0.897708         1.231614
 H        -0.635341         0.378875        -0.416689
 H         1.747102         0.775351        -2.193166
 H         2.214642         1.806650        -0.891297
 H         4.256724         0.332824        -1.421306
 H         2.289313        -1.438913        -2.623068
 H         3.497190        -2.371683        -1.502045
 H         1.107596        -3.103462        -0.046335
 H         4.168933        -0.892943         0.935037
