19
Iteration:   603charge 0 multiplicity 1
 C        -0.066617         0.153871         0.425390
 C         1.403655         0.091928         0.012604
 C         2.024717         0.894699        -1.130304
 C         3.337276        -0.129746        -1.159221
 C         2.843402        -1.595869        -1.527126
 C         2.024956        -1.355134        -0.191225
 O         1.586257        -2.457131         0.617224
 C         3.208621        -0.507124         0.362791
 O         2.358335         0.432548         1.066209
 H        -0.062207        -0.489960         1.254007
 H        -0.439097         1.163477         0.626197
 H        -0.601524        -0.226745        -0.372691
 H         1.575944         0.908087        -2.088317
 H         2.235448         1.954892        -1.120855
 H         4.365817         0.210382        -1.580724
 H         2.492249        -1.845902        -2.561906
 H         3.547594        -2.323092        -1.259517
 H         2.354041        -2.816349         1.112148
 H         4.031679        -0.933797         0.881964
