19
Iteration:  4814charge 0 multiplicity 1
 C        -0.009064         0.560460         0.370798
 C         1.405350         0.046978         0.037917
 C         2.034125         0.721386        -1.186926
 C         3.286839        -0.110842        -1.133171
 C         2.741439        -1.496495        -1.520212
 C         2.064155        -1.433380        -0.159835
 O         1.660280        -2.612452         0.513660
 C         3.313666        -0.513722         0.424204
 O         2.367721         0.302456         1.211516
 H        -0.504757        -0.010244         1.192227
 H         0.120021         1.625116         0.671460
 H        -0.664836         0.440738        -0.582916
 H         1.628021         0.617079        -2.178855
 H         2.242597         1.781911        -0.969047
 H         4.246611         0.399562        -1.465381
 H         1.908702        -1.581505        -2.392495
 H         3.590116        -2.264697        -1.669719
 H         0.678788        -2.702237         0.213815
 H         4.209767        -0.816763         0.933574
