19
Iteration:  1932
 C        -0.047274         0.247467         0.482620
 C         1.376481         0.114866         0.076658
 C         2.152552         0.773371        -1.165416
 C         3.290945        -0.120207        -1.208828
 C         2.573212        -1.500836        -1.553011
 C         2.089570        -1.381661        -0.147474
 O         1.615805        -2.417248         0.638014
 C         3.257075        -0.583167         0.303798
 O         2.444800         0.384941         1.056694
 H        -0.311473        -0.434532         1.334688
 H        -0.154162         1.269400         0.817985
 H        -0.677330        -0.148002        -0.342329
 H         1.499670         0.948747        -2.073825
 H         2.174238         1.848676        -0.907513
 H         4.319452         0.195441        -1.506632
 H         2.073167        -1.594469        -2.521921
 H         3.333658        -2.257906        -1.466794
 H         2.254608        -3.099656         0.547226
 H         4.140995        -0.970847         0.884829
