19
Iteration:  1398charge 0 multiplicity 1
 C         0.060707         0.175529         0.580301
 C         1.443092         0.037385         0.004723
 C         2.001050         0.806403        -1.222981
 C         3.267995        -0.157446        -1.180484
 C         2.729969        -1.510775        -1.558727
 C         2.051496        -1.388106        -0.185079
 O         1.418160        -2.339441         0.580618
 C         3.296819        -0.527776         0.366321
 O         2.500835         0.404851         1.083477
 H        -0.175651        -0.694672         1.233608
 H        -0.104179         1.247644         0.812418
 H        -0.693059         0.033442        -0.327284
 H         1.303515         0.631965        -2.067644
 H         2.297668         1.846361        -0.937211
 H         4.203097         0.087521        -1.578735
 H         2.200389        -1.682872        -2.479213
 H         3.590987        -2.225179        -1.536958
 H         2.148392        -2.796549         1.086537
 H         4.239994        -0.876082         0.858742
