19
Iteration:  4380charge 0 multiplicity 1
 C        -0.070632         0.175964         0.303117
 C         1.386693         0.046903        -0.058909
 C         2.139447         0.835498        -1.161249
 C         3.377257        -0.128019        -1.060071
 C         2.761930        -1.574095        -1.515157
 C         2.182616        -1.414614        -0.125880
 O         1.510512        -2.408190         0.588138
 C         3.209039        -0.521545         0.449724
 O         2.321417         0.424935         1.042945
 H        -0.401750        -0.844759         0.682335
 H        -0.208697         0.886612         1.153787
 H        -0.656500         0.537836        -0.563393
 H         1.662881         0.880392        -2.099038
 H         2.306035         1.788362        -0.721788
 H         4.433406         0.100850        -1.447052
 H         2.112223        -1.574396        -2.401821
 H         3.621532        -2.180277        -1.842686
 H         1.744996        -2.231936         1.559565
 H         4.167736        -0.838412         0.940625
