19
Iteration:  1084
 C        -0.040031         0.204615         0.510101
 C         1.412441         0.064447         0.064749
 C         2.119900         0.786507        -1.263237
 C         3.305526        -0.097409        -1.164999
 C         2.776445        -1.516543        -1.524813
 C         2.162347        -1.460811        -0.095813
 O         1.553356        -2.485149         0.553218
 C         3.252429        -0.447157         0.327913
 O         2.338173         0.413510         1.047160
 H        -0.156628        -0.410674         1.502504
 H        -0.424135         1.136763         1.061366
 H        -0.725605        -0.214473        -0.240585
 H         1.691636         0.722598        -2.222270
 H         2.342349         1.827695        -0.986818
 H         4.250332         0.261951        -1.506475
 H         2.058939        -1.580366        -2.417072
 H         3.523927        -2.350943        -1.766878
 H         1.058663        -2.063031         1.259681
 H         4.184059        -0.755472         0.798426
