19
Iteration:  2528charge 0 multiplicity 1
 C        -0.015638         0.107998         0.407922
 C         1.446800         0.130304         0.005969
 C         2.057721         0.876816        -1.233815
 C         3.365646        -0.073881        -1.122878
 C         2.768676        -1.596546        -1.474633
 C         2.102288        -1.431600        -0.129011
 O         1.569875        -2.458102         0.690694
 C         3.201721        -0.461072         0.350154
 O         2.353615         0.433139         1.015295
 H        -0.134249        -0.582738         1.264961
 H        -0.146453         1.060514         0.850122
 H        -0.888341        -0.254072        -0.320851
 H         1.483866         0.901382        -2.188645
 H         2.477023         1.855387        -1.052979
 H         4.354016         0.118459        -1.505870
 H         2.348972        -1.703770        -2.459604
 H         3.647089        -2.327769        -1.355230
 H         0.780566        -2.766319         0.149345
 H         4.110656        -0.686827         1.022324
