19
Iteration:   142charge 0 multiplicity 1
 C        -0.037708         0.179599         0.262275
 C         1.375715         0.079464        -0.059529
 C         2.046747         0.871792        -1.174521
 C         3.283677        -0.081297        -1.165150
 C         2.790000        -1.584992        -1.416589
 C         2.256674        -1.466791        -0.034499
 O         1.631408        -2.498143         0.580226
 C         3.195277        -0.426736         0.489679
 O         2.347026         0.453666         1.094072
 H        -0.402450        -0.570339         0.979265
 H        -0.270121         1.133015         0.718089
 H        -0.744921         0.035608        -0.559590
 H         1.444812         0.960533        -1.996532
 H         2.276892         1.862859        -0.830275
 H         4.153711         0.266462        -1.623280
 H         1.975313        -1.632454        -2.155441
 H         3.381714        -2.465450        -1.647746
 H         1.391787        -3.232180        -0.041140
 H         4.154834        -0.660704         0.896024
