19
Iteration:  2432
 C        -0.054686         0.271723         0.444262
 C         1.429187         0.097975         0.015513
 C         2.094857         0.690152        -1.222180
 C         3.355625        -0.104781        -1.098287
 C         2.801765        -1.529076        -1.523288
 C         2.070315        -1.398480        -0.146220
 O         1.612642        -2.455564         0.548521
 C         3.205698        -0.437060         0.339586
 O         2.335695         0.341036         1.046068
 H        -0.196689        -0.126004         1.458957
 H        -0.318600         1.259744         0.626702
 H        -0.783228        -0.332446        -0.089319
 H         1.474351         0.630187        -2.136640
 H         2.174365         1.755534        -1.081637
 H         4.323530         0.234000        -1.451652
 H         2.131327        -1.460665        -2.336223
 H         3.604582        -2.330698        -1.435601
 H         1.541900        -2.232902         1.551779
 H         3.978598        -0.818801         0.997858
