19
Iteration:   247charge 0 multiplicity 1
 C        -0.079985         0.155451         0.315655
 C         1.407116         0.125865         0.095317
 C         1.979119         0.771524        -1.155509
 C         3.354367        -0.087805        -1.113458
 C         2.775474        -1.491209        -1.499540
 C         2.109862        -1.378890        -0.133427
 O         1.693492        -2.546247         0.537860
 C         3.254380        -0.538031         0.467034
 O         2.424321         0.471154         1.031951
 H        -0.394644        -0.321146         1.217329
 H        -0.425163         1.180626         0.345051
 H        -0.580417        -0.201635        -0.648730
 H         1.251570         0.405068        -2.022729
 H         1.955632         1.886684        -1.099715
 H         4.396661         0.297865        -1.349281
 H         1.968957        -1.358395        -2.166517
 H         3.423517        -2.380115        -1.719740
 H         0.773963        -2.265411         0.899099
 H         4.090420        -0.891800         1.056529
