19
Iteration:  4214charge 0 multiplicity 1
 C        -0.132264         0.212768         0.227357
 C         1.407508         0.041742         0.003882
 C         2.070735         0.809752        -1.200079
 C         3.368435        -0.063421        -1.212848
 C         2.859190        -1.493707        -1.466387
 C         2.143302        -1.348775        -0.084089
 O         1.450076        -2.464212         0.572618
 C         3.243739        -0.548375         0.505820
 O         2.397989         0.385221         1.155849
 H        -0.518114        -0.230083         1.194369
 H        -0.516762         1.253615         0.352817
 H        -0.605631        -0.205219        -0.644765
 H         1.692491         0.575776        -2.135849
 H         2.179385         1.850985        -0.952674
 H         4.403280         0.140821        -1.546814
 H         2.284103        -1.689244        -2.313920
 H         3.671104        -2.197778        -1.590728
 H         2.087470        -2.939624         1.112200
 H         4.154696        -0.778105         0.930263
