19
Iteration:  3197charge 0 multiplicity 1
 C        -0.047633         0.085632         0.423243
 C         1.386028         0.040561        -0.012521
 C         2.062843         0.746739        -1.248659
 C         3.426003        -0.074291        -1.131870
 C         2.827942        -1.515316        -1.501060
 C         2.098259        -1.321778        -0.111699
 O         1.491627        -2.398846         0.564852
 C         3.262388        -0.510647         0.485241
 O         2.316290         0.481771         1.055059
 H        -0.172752        -0.429793         1.394519
 H        -0.218598         1.187603         0.686033
 H        -0.842917        -0.209228        -0.257062
 H         1.776872         0.567361        -2.272736
 H         2.391508         1.750618        -0.914413
 H         4.338542         0.408612        -1.508986
 H         2.312155        -1.744105        -2.383584
 H         3.499311        -2.411628        -1.316588
 H         1.628617        -3.219609         0.077025
 H         4.098956        -0.793181         1.086444
