19
Iteration:  4765charge 0 multiplicity 1
 C        -0.053729         0.243544         0.461504
 C         1.406953         0.073627        -0.018840
 C         2.111757         0.868136        -1.152672
 C         3.428159        -0.116816        -1.139839
 C         2.783142        -1.519286        -1.535734
 C         2.076745        -1.416804        -0.123533
 O         1.406720        -2.490832         0.443638
 C         3.254706        -0.558416         0.419259
 O         2.425418         0.378419         1.100970
 H        -0.197755         0.012882         1.536877
 H        -0.324417         1.292358         0.272134
 H        -0.705191        -0.495004         0.040716
 H         1.555447         0.730855        -2.113272
 H         2.532868         1.798264        -0.745484
 H         4.409843         0.114465        -1.547929
 H         2.220341        -1.502344        -2.434416
 H         3.513866        -2.276516        -1.528758
 H         1.242253        -2.182491         1.313819
 H         4.276495        -0.751862         0.903279
