19
Iteration:  4205
 C        -0.062459         0.245425         0.235954
 C         1.387678         0.060448        -0.028400
 C         2.097658         0.754398        -1.151350
 C         3.396172        -0.098780        -1.106657
 C         2.870049        -1.489905        -1.463535
 C         2.068794        -1.388501        -0.076482
 O         1.478827        -2.513830         0.569468
 C         3.244380        -0.476734         0.398578
 O         2.350077         0.424725         1.127642
 H        -0.435169        -0.404961         1.110194
 H        -0.263860         1.285859         0.451845
 H        -0.596196        -0.080294        -0.604888
 H         1.393035         0.653385        -2.009851
 H         2.228107         1.822626        -0.968238
 H         4.199137         0.350266        -1.770141
 H         2.327817        -1.473723        -2.424902
 H         3.532182        -2.317096        -1.343831
 H         2.232509        -2.913315         1.026164
 H         4.022575        -0.937775         1.025775
