19
Iteration:  1013
 C        -0.010069         0.252993         0.367362
 C         1.389422         0.036450        -0.030582
 C         2.021747         0.705485        -1.152242
 C         3.288435        -0.083125        -1.193178
 C         2.733959        -1.474134        -1.493289
 C         2.171294        -1.410179        -0.131148
 O         1.594403        -2.466840         0.664587
 C         3.266197        -0.480168         0.416732
 O         2.366250         0.420243         1.075513
 H        -0.254702        -0.252886         1.280009
 H        -0.070913         1.251719         0.702438
 H        -0.699278         0.007859        -0.395989
 H         1.503078         0.758804        -2.172650
 H         2.316360         1.747170        -0.833802
 H         4.155431         0.376797        -1.721103
 H         1.949087        -1.712794        -2.277805
 H         3.698287        -2.155583        -1.603218
 H         1.386956        -3.233842         0.115591
 H         4.248130        -0.773628         1.007604
