19
Iteration:  3920charge 0 multiplicity 1
 C        -0.084607         0.190594         0.271354
 C         1.403679         0.045877        -0.073422
 C         2.063568         0.781734        -1.249488
 C         3.372382        -0.095016        -1.061777
 C         2.783018        -1.508207        -1.456173
 C         2.124647        -1.350082        -0.070324
 O         1.541854        -2.459797         0.555978
 C         3.270136        -0.489795         0.438882
 O         2.359883         0.349721         1.120519
 H        -0.326750        -0.750382         0.821558
 H        -0.190182         1.029967         0.920654
 H        -0.765179         0.265334        -0.550714
 H         1.696080         0.882483        -2.295441
 H         2.175039         1.913113        -1.108406
 H         4.340626         0.250919        -1.517171
 H         2.213042        -1.744989        -2.361033
 H         3.695464        -2.102671        -1.324626
 H         1.266226        -2.186437         1.508270
 H         4.207224        -0.867144         0.834131
