19
Iteration:  2389
 C        -0.005411         0.178846         0.349530
 C         1.386030         0.035484         0.060391
 C         2.021653         0.795979        -1.118688
 C         3.285156        -0.134402        -1.198175
 C         2.778879        -1.539953        -1.455483
 C         2.191539        -1.372464        -0.070984
 O         1.526116        -2.490681         0.610439
 C         3.316992        -0.487806         0.350410
 O         2.411199         0.474869         1.034967
 H        -0.471484        -0.651164         0.960633
 H        -0.067717         1.092759         0.901358
 H        -0.499166         0.151322        -0.613595
 H         1.339672         0.717913        -2.009455
 H         2.324900         1.823269        -1.015158
 H         4.114291         0.441273        -1.552687
 H         2.087444        -1.495003        -2.266160
 H         3.513849        -2.399036        -1.413696
 H         0.589462        -2.648125         0.290763
 H         4.314960        -0.654601         0.733262
