19
Iteration:  3045charge 0 multiplicity 1
 C         0.035240         0.226953         0.393502
 C         1.427799        -0.002043        -0.001787
 C         1.967604         0.724173        -1.188404
 C         3.356964        -0.075026        -1.108324
 C         2.857955        -1.482596        -1.425478
 C         2.064763        -1.396036        -0.124772
 O         1.537325        -2.440009         0.557544
 C         3.258331        -0.465106         0.411406
 O         2.404716         0.416390         1.088689
 H        -0.392984        -0.255871         1.271844
 H        -0.145886         1.349667         0.274185
 H        -0.620565        -0.228776        -0.327823
 H         1.397611         0.534691        -2.101032
 H         1.842447         1.839699        -1.218350
 H         4.247068         0.416057        -1.582735
 H         2.287111        -1.840865        -2.331512
 H         3.652860        -2.297096        -1.250418
 H         0.878159        -2.813712        -0.117562
 H         4.099010        -0.852288         0.919119
