19
Iteration:   534charge 0 multiplicity 1
 C        -0.124058         0.137040         0.384572
 C         1.381688         0.087521        -0.003726
 C         2.055558         0.826792        -1.227454
 C         3.322419        -0.084156        -1.186401
 C         2.758948        -1.514816        -1.423784
 C         2.051226        -1.374217        -0.096716
 O         1.590774        -2.526323         0.512427
 C         3.284872        -0.481147         0.441877
 O         2.461983         0.450186         1.068682
 H        -0.242037        -0.474033         1.297118
 H        -0.290207         1.194359         0.678583
 H        -0.753947         0.044282        -0.451265
 H         1.399502         0.905373        -2.106416
 H         1.945861         1.828868        -0.948935
 H         4.161188         0.204130        -1.691453
 H         2.294352        -1.732856        -2.377885
 H         3.502619        -2.346194        -1.269782
 H         2.099950        -2.771037         1.275500
 H         4.206195        -0.962549         0.971574
