19
Iteration:  4849
 C        -0.006714         0.371723         0.431001
 C         1.434591         0.085814        -0.012110
 C         2.084222         0.811110        -1.180388
 C         3.347953        -0.133604        -1.114559
 C         2.749282        -1.492619        -1.543255
 C         1.980594        -1.363705        -0.129189
 O         1.568963        -2.549690         0.587398
 C         3.236753        -0.566928         0.393811
 O         2.411843         0.370744         1.135465
 H        -0.467331        -0.546881         0.793128
 H        -0.065830         1.172783         1.164769
 H        -0.564001         0.772232        -0.531819
 H         1.548712         0.934145        -2.161764
 H         2.566576         1.796241        -0.844317
 H         4.207611         0.201140        -1.645787
 H         2.072531        -1.637436        -2.537270
 H         3.606133        -2.333822        -1.553752
 H         1.235761        -3.339572         0.025852
 H         4.181127        -0.864205         0.930953
