19
Iteration:  1920charge 0 multiplicity 1
 C        -0.097371         0.246963         0.476551
 C         1.445735         0.059661         0.030137
 C         1.987904         0.850897        -1.128511
 C         3.366364        -0.154139        -1.234149
 C         2.685071        -1.458392        -1.573698
 C         2.028853        -1.331706        -0.120702
 O         1.567948        -2.411689         0.631339
 C         3.282462        -0.578228         0.327152
 O         2.489906         0.319765         1.066939
 H        -0.162371        -0.290583         1.419154
 H        -0.397942         1.250562         0.635569
 H        -0.915656         0.041847        -0.297723
 H         1.490740         0.593685        -2.106917
 H         2.423123         1.777406        -0.833382
 H         4.276177         0.171447        -1.824896
 H         1.919714        -1.642377        -2.386048
 H         3.396121        -2.292369        -1.592129
 H         2.338578        -2.930419         1.020724
 H         4.251052        -0.991544         0.812515
