19
Iteration:  4189charge 0 multiplicity 1
 C         0.003270         0.304726         0.311430
 C         1.415147         0.003950         0.020664
 C         2.072699         0.712162        -1.187641
 C         3.356186        -0.100325        -1.051671
 C         2.790270        -1.533498        -1.463155
 C         2.059473        -1.401317        -0.184587
 O         1.573744        -2.491492         0.531354
 C         3.201249        -0.470209         0.485960
 O         2.267139         0.464444         1.033623
 H        -0.385623        -0.316626         1.086050
 H        -0.138181         1.286999         0.847211
 H        -0.615165         0.266416        -0.669474
 H         1.839179         0.597720        -2.222098
 H         2.284540         1.717235        -0.812738
 H         4.347269         0.234036        -1.175695
 H         2.326907        -1.796665        -2.407531
 H         3.628046        -2.288738        -1.420957
 H         2.256035        -3.014559         0.871513
 H         4.145994        -0.603168         1.028815
