19
Iteration:   348
 C        -0.070073         0.154426         0.391095
 C         1.389618         0.042314         0.012519
 C         2.010695         0.746673        -1.165480
 C         3.285658        -0.120660        -1.198578
 C         2.794634        -1.520443        -1.464352
 C         2.197894        -1.473890        -0.068305
 O         1.576489        -2.447413         0.525026
 C         3.269382        -0.423455         0.482203
 O         2.393651         0.521186         1.085260
 H        -0.363138        -0.494181         1.234462
 H        -0.180500         1.187563         0.731787
 H        -0.740432         0.057714        -0.466968
 H         1.273404         0.650494        -2.065631
 H         2.340642         1.836234        -1.006232
 H         4.110571         0.124639        -1.681943
 H         2.128530        -1.759789        -2.243550
 H         3.597574        -2.261431        -1.575230
 H         1.485438        -2.988791        -0.249884
 H         4.229271        -0.553175         1.036755
