19
Iteration:    29
 C        -0.094824         0.174051         0.407555
 C         1.420500         0.129449         0.045883
 C         2.058006         0.695730        -1.287348
 C         3.372061        -0.112336        -1.139157
 C         2.772169        -1.484208        -1.434413
 C         2.116759        -1.351554        -0.029291
 O         1.686699        -2.560174         0.414932
 C         3.187146        -0.448211         0.512293
 O         2.368828         0.537821         1.077294
 H        -0.258139        -0.536140         1.236052
 H        -0.603687         1.138430         0.599161
 H        -0.484671        -0.557542        -0.373365
 H         1.468450         0.485453        -2.218958
 H         2.097395         1.801846        -1.219028
 H         4.394646         0.096602        -1.469293
 H         2.176823        -1.649985        -2.346907
 H         3.481900        -2.370873        -1.466536
 H         0.796513        -2.522140         0.675463
 H         4.004794        -0.919399         1.141187
