19
Iteration:  2809
 C         0.023757         0.189370         0.368741
 C         1.422805         0.043033         0.016223
 C         2.092666         0.755573        -1.196252
 C         3.399623        -0.103505        -1.100674
 C         2.698310        -1.485940        -1.442871
 C         2.068438        -1.403352        -0.195761
 O         1.604163        -2.531397         0.562586
 C         3.194545        -0.469586         0.387999
 O         2.295989         0.474318         1.061416
 H        -0.333106        -0.477523         1.150060
 H        -0.012007         1.211267         0.682098
 H        -0.652806        -0.186366        -0.453586
 H         1.604827         0.917934        -2.201542
 H         2.192401         1.826328        -1.003624
 H         4.434169         0.031372        -1.534573
 H         1.982054        -1.355199        -2.317311
 H         3.305669        -2.358424        -1.513790
 H         2.085411        -2.486265         1.373274
 H         4.119559        -0.684194         1.122454
