19
Iteration:  1126
 C        -0.009681         0.284218         0.467187
 C         1.418436         0.084052         0.055884
 C         1.993238         0.712142        -1.164480
 C         3.248480        -0.066363        -1.144484
 C         2.777815        -1.530639        -1.554445
 C         2.087054        -1.420664        -0.122908
 O         1.575514        -2.488468         0.625727
 C         3.303879        -0.513648         0.350005
 O         2.453095         0.428281         1.074620
 H        -0.427043        -0.200052         1.321792
 H        -0.284597         1.336082         0.555313
 H        -0.394791        -0.129795        -0.461671
 H         1.334454         0.507999        -2.023577
 H         2.124850         1.801899        -1.173786
 H         4.154313         0.293265        -1.621970
 H         2.065873        -1.589797        -2.386731
 H         3.762534        -2.164390        -1.471625
 H         1.058585        -2.961463        -0.036812
 H         4.257231        -0.685560         0.802567
