19
Iteration:  1701
 C         0.066125         0.277802         0.619983
 C         1.449989         0.068448         0.094532
 C         1.993044         0.781677        -1.183494
 C         3.245352        -0.095971        -1.264120
 C         2.749024        -1.543215        -1.605209
 C         2.049727        -1.349089        -0.208873
 O         1.449308        -2.439893         0.546351
 C         3.307011        -0.521603         0.338177
 O         2.523686         0.322440         1.113300
 H        -0.155643        -0.263781         1.526720
 H        -0.184441         1.324901         0.660684
 H        -0.594966        -0.309904        -0.106373
 H         1.309675         0.539641        -2.080004
 H         2.096619         1.814930        -0.961685
 H         4.107903         0.363121        -1.634503
 H         2.252859        -1.755549        -2.531351
 H         3.555788        -2.190826        -1.534950
 H         1.443577        -2.157266         1.463123
 H         4.213669        -1.069730         0.488953
