19
Iteration:   664charge 0 multiplicity 1
 C        -0.057197         0.245710         0.384976
 C         1.348785         0.037781         0.097806
 C         1.995374         0.715852        -1.174222
 C         3.281855        -0.067031        -1.221426
 C         2.954135        -1.545293        -1.493487
 C         2.118109        -1.422380        -0.089627
 O         1.448579        -2.454417         0.555486
 C         3.309103        -0.388769         0.376602
 O         2.416254         0.437639         1.122976
 H        -0.285619        -0.479185         1.251073
 H        -0.393524         1.282639         0.678614
 H        -0.731795        -0.180248        -0.450851
 H         1.320028         0.471281        -2.076368
 H         2.228005         1.789354        -1.050581
 H         4.102661         0.418646        -1.660217
 H         2.477292        -1.736629        -2.464921
 H         3.801817        -2.331563        -1.360614
 H         1.814880        -3.343000         0.274060
 H         4.356998        -0.691163         0.783818
