19
Iteration:     8
 C        -0.076607         0.143668         0.336666
 C         1.397085         0.078452         0.001460
 C         2.047816         0.728862        -1.224358
 C         3.406750        -0.091991        -1.078604
 C         2.792728        -1.489234        -1.472037
 C         2.047947        -1.364392        -0.088540
 O         1.640389        -2.539448         0.496404
 C         3.246161        -0.417972         0.429415
 O         2.333447         0.447353         1.119846
 H        -0.336395        -0.482264         1.183215
 H        -0.086314         1.185622         0.633828
 H        -0.754450        -0.237240        -0.490782
 H         1.555864         0.508703        -2.132785
 H         2.199668         1.804352        -1.234399
 H         4.142182         0.407064        -1.642143
 H         2.217873        -1.662331        -2.379657
 H         3.545666        -2.347013        -1.480117
 H         1.256746        -2.186380         1.374921
 H         4.271654        -0.732173         0.800878
