19
Iteration:  4941charge 0 multiplicity 1
 C        -0.026491         0.369294         0.476795
 C         1.438754         0.041065         0.050345
 C         2.134330         0.757189        -1.120010
 C         3.380906        -0.158886        -1.140885
 C         2.711832        -1.493310        -1.522843
 C         2.079356        -1.369141        -0.178899
 O         1.453191        -2.490894         0.435739
 C         3.226267        -0.539840         0.390178
 O         2.402682         0.379007         1.164425
 H        -0.222770         0.009703         1.499136
 H         0.053709         1.454143         0.343041
 H        -0.663068        -0.027751        -0.218488
 H         1.421766         0.778833        -2.050649
 H         2.261806         1.853125        -0.899953
 H         4.270605         0.181351        -1.783796
 H         1.948722        -1.607599        -2.358789
 H         3.476734        -2.325087        -1.579896
 H         2.217929        -3.006435         0.548692
 H         4.129657        -0.963949         0.785117
