19
Iteration:  3640
 C        -0.102508         0.181269         0.258017
 C         1.382967         0.059312         0.048447
 C         2.036506         0.757476        -1.144133
 C         3.396334        -0.119821        -1.120464
 C         2.870232        -1.505098        -1.504745
 C         2.154821        -1.377066        -0.104852
 O         1.534262        -2.444834         0.617090
 C         3.317172        -0.515555         0.413488
 O         2.328764         0.400693         1.108704
 H        -0.449511        -0.289491         1.210981
 H        -0.359222         1.164737         0.230241
 H        -0.620080        -0.450852        -0.369118
 H         1.509988         0.684044        -2.190287
 H         2.378941         1.840391        -1.145331
 H         4.280261         0.416241        -1.659954
 H         2.215531        -1.418381        -2.445532
 H         3.652049        -2.197934        -1.654404
 H         0.655279        -2.115935         0.677840
 H         4.200719        -0.862146         0.933725
