19
Iteration:  4896charge 0 multiplicity 1
 C         0.029571         0.131012         0.438667
 C         1.506631         0.007510         0.020951
 C         2.109959         0.737424        -1.126549
 C         3.336641        -0.083631        -1.182640
 C         2.755051        -1.472338        -1.523332
 C         2.089869        -1.377658        -0.126997
 O         1.281984        -2.334245         0.563818
 C         3.265258        -0.517028         0.356447
 O         2.487087         0.414221         1.119484
 H        -0.186288        -0.852929         0.892423
 H        -0.000567         0.937746         1.198110
 H        -0.629105         0.326931        -0.338406
 H         1.725007         0.654870        -2.237942
 H         2.266439         1.835403        -0.888178
 H         4.315087         0.305271        -1.377978
 H         2.249929        -1.447900        -2.552055
 H         3.529463        -2.306514        -1.510517
 H         1.104252        -3.094970         0.024904
 H         4.134793        -0.899300         0.923703
