19
Iteration:  4974
 C        -0.044663         0.487083         0.425503
 C         1.435418         0.074646        -0.012443
 C         2.085919         0.804217        -1.118011
 C         3.289635        -0.092884        -1.107807
 C         2.752428        -1.433635        -1.585992
 C         2.120637        -1.465070        -0.207998
 O         1.514899        -2.567109         0.520023
 C         3.168288        -0.649847         0.380210
 O         2.447157         0.284189         1.168516
 H        -0.158593         0.592129         1.539929
 H        -0.183694         1.505019         0.042538
 H        -0.860183        -0.042126         0.079513
 H         1.599871         0.692874        -2.122654
 H         2.344822         1.779340        -0.710515
 H         4.266276         0.264249        -1.619532
 H         2.003090        -1.367612        -2.423844
 H         3.640895        -2.109585        -1.774340
 H         2.063685        -2.652682         1.363637
 H         4.129393        -1.008161         0.666260
