19
Iteration:   317
 C        -0.032290         0.145334         0.435680
 C         1.439758         0.051649        -0.011648
 C         2.025557         0.770738        -1.270936
 C         3.387343        -0.062746        -1.089427
 C         2.815367        -1.422742        -1.501695
 C         2.019663        -1.408625        -0.107880
 O         1.684701        -2.523868         0.629452
 C         3.158146        -0.485999         0.383999
 O         2.362731         0.444265         1.057556
 H        -0.263043        -0.508336         1.341545
 H        -0.294675         1.232714         0.672360
 H        -0.757087         0.034917        -0.330487
 H         1.463191         0.575920        -2.201157
 H         2.373059         1.852276        -1.221789
 H         4.325313         0.247127        -1.485890
 H         2.240573        -1.466647        -2.473480
 H         3.474211        -2.252175        -1.355179
 H         0.746115        -2.903084         0.394996
 H         4.112617        -0.755226         0.954237
