19
Iteration:   687
 C        -0.094256         0.176503         0.405305
 C         1.373626         0.062694         0.044911
 C         1.999599         0.768675        -1.226064
 C         3.371303        -0.016836        -1.152272
 C         2.811839        -1.550255        -1.443526
 C         2.092680        -1.352089        -0.148809
 O         1.594375        -2.372688         0.590561
 C         3.241002        -0.520168         0.437070
 O         2.403438         0.385796         1.045926
 H        -0.382185        -0.503442         1.288041
 H        -0.328410         1.266458         0.759928
 H        -0.768866        -0.165446        -0.434673
 H         1.530352         0.486370        -2.257193
 H         2.111073         1.827650        -0.960088
 H         4.331297         0.205041        -1.612967
 H         2.241863        -1.657894        -2.396271
 H         3.633590        -2.381633        -1.385972
 H         1.892151        -3.224377         0.207489
 H         4.158531        -1.039477         0.953128
