19
Iteration:  3694
 C        -0.142997         0.297264         0.289250
 C         1.318906         0.014410         0.027318
 C         2.153190         0.738494        -1.215348
 C         3.436201        -0.121880        -1.176240
 C         2.802323        -1.501918        -1.504306
 C         2.125787        -1.372787        -0.090088
 O         1.572365        -2.547967         0.536844
 C         3.202184        -0.439460         0.509991
 O         2.326908         0.447259         1.098117
 H        -0.408134        -0.470059         1.106745
 H        -0.411942         1.233985         0.648645
 H        -0.761442         0.002131        -0.541278
 H         1.600758         0.486124        -2.152932
 H         2.389584         1.748260        -0.935009
 H         4.482562         0.325651        -1.475404
 H         2.179033        -1.644743        -2.481426
 H         3.602352        -2.207775        -1.484399
 H         2.034693        -2.660658         1.335580
 H         4.086874        -0.736397         1.071192
