19
Iteration:  3509charge 0 multiplicity 1
 C        -0.041702         0.207819         0.365234
 C         1.452554        -0.025391         0.014328
 C         2.110229         0.800717        -1.170589
 C         3.368657        -0.105098        -1.111260
 C         2.805053        -1.523253        -1.461216
 C         2.074305        -1.352521        -0.197139
 O         1.481987        -2.437620         0.584417
 C         3.263377        -0.483966         0.391530
 O         2.291810         0.403759         1.057102
 H        -0.271339        -0.546903         1.191481
 H        -0.207953         1.179850         0.753313
 H        -0.519737         0.168846        -0.568248
 H         1.662760         0.574645        -2.194919
 H         2.282134         1.785266        -0.797892
 H         4.147218         0.484392        -1.680174
 H         2.342513        -1.603465        -2.495991
 H         3.608974        -2.128760        -1.244656
 H         2.127065        -2.732380         1.183530
 H         3.983369        -1.024313         0.956623
