19
Iteration:  2880
 C        -0.017774         0.234245         0.398744
 C         1.422975         0.007893        -0.006624
 C         1.982085         0.708909        -1.214875
 C         3.327988        -0.105641        -1.145879
 C         2.787590        -1.470199        -1.458970
 C         2.216407        -1.426418        -0.097796
 O         1.553689        -2.522240         0.494739
 C         3.250945        -0.454149         0.458169
 O         2.417144         0.476425         1.111609
 H        -0.386634        -0.209857         1.357087
 H        -0.181250         1.377388         0.345140
 H        -0.654536        -0.243695        -0.302744
 H         1.449706         0.550795        -2.154105
 H         1.986799         1.813354        -1.172192
 H         4.154323         0.337295        -1.654560
 H         2.077119        -1.458960        -2.264993
 H         3.484613        -2.387401        -1.558071
 H         0.780767        -2.287398         0.938319
 H         4.058323        -0.862552         0.913434
