19
Iteration:  1603
 C         0.132686         0.376383         0.530397
 C         1.418949         0.014511        -0.014890
 C         1.970613         0.798809        -1.107238
 C         3.252816        -0.067534        -1.291892
 C         2.691226        -1.488481        -1.545373
 C         2.142722        -1.457607        -0.140308
 O         1.495707        -2.429660         0.605193
 C         3.294813        -0.566727         0.274767
 O         2.429279         0.302962         1.120327
 H        -0.112355        -0.341075         1.271300
 H         0.178940         1.334695         0.975272
 H        -0.712780         0.204420        -0.202120
 H         1.275942         0.675278        -2.027020
 H         2.080120         1.844921        -0.945964
 H         4.077973         0.328707        -1.871326
 H         2.180166        -1.661396        -2.540222
 H         3.453730        -2.219287        -1.635427
 H         1.663620        -2.665431         1.510824
 H         4.202746        -0.954920         0.728985
