19
Iteration:  4051
 C        -0.046683         0.255468         0.254151
 C         1.427837         0.053126         0.015076
 C         2.038897         0.762024        -1.142142
 C         3.346670        -0.054041        -1.146667
 C         2.885804        -1.559788        -1.513518
 C         2.146505        -1.400439        -0.142645
 O         1.413733        -2.466629         0.578025
 C         3.252242        -0.445076         0.379248
 O         2.330361         0.399258         1.189920
 H        -0.306998         0.070620         1.304680
 H        -0.462357         1.183827        -0.127532
 H        -0.393076        -0.585992        -0.347156
 H         1.583744         0.483715        -2.140685
 H         2.224534         1.880138        -0.895615
 H         4.369530         0.444848        -1.166564
 H         2.434816        -1.731030        -2.537636
 H         3.635720        -2.395467        -1.453416
 H         2.142665        -2.894034         1.127343
 H         4.173871        -0.875315         0.850778
