19
Iteration:  4701
 C        -0.005011         0.209449         0.336542
 C         1.414479         0.068697         0.027247
 C         2.116848         0.757010        -1.092882
 C         3.385162        -0.145006        -1.153095
 C         2.783943        -1.435394        -1.480439
 C         2.053988        -1.419052        -0.164150
 O         1.395208        -2.375267         0.613110
 C         3.279377        -0.549542         0.371601
 O         2.397365         0.367122         1.090335
 H        -0.345157        -0.345664         1.262057
 H        -0.157982         1.348051         0.464654
 H        -0.517942        -0.094391        -0.570213
 H         1.525447         0.864170        -1.997295
 H         2.414569         1.773087        -0.807475
 H         4.265081         0.322651        -1.630593
 H         2.178960        -1.499416        -2.541882
 H         3.563835        -2.211440        -1.422591
 H         1.729708        -3.233173         0.279363
 H         4.244371        -0.791845         0.918004
