19
Iteration:  4453
 C         0.001595         0.366083         0.399877
 C         1.414789         0.007643         0.009052
 C         2.097912         0.796902        -1.233939
 C         3.395269        -0.080770        -1.142964
 C         2.847402        -1.446424        -1.512561
 C         2.085195        -1.476373        -0.138846
 O         1.573597        -2.603057         0.641643
 C         3.198220        -0.494641         0.413642
 O         2.276393         0.437613         1.094718
 H        -0.175634        -0.116834         1.381854
 H        -0.213711         1.421432         0.225780
 H        -0.640940        -0.058324        -0.337330
 H         1.630457         0.578555        -2.231013
 H         2.228997         1.911832        -0.907472
 H         4.426221         0.206443        -1.472492
 H         2.331674        -1.720106        -2.391555
 H         3.647026        -2.286249        -1.518800
 H         0.713933        -2.778092         0.193061
 H         3.903303        -0.749233         1.092040
