19
Iteration:  4690charge 0 multiplicity 1
 C         0.039668         0.319435         0.320547
 C         1.465556         0.004777         0.000397
 C         2.109263         0.829625        -1.163941
 C         3.312321        -0.106170        -1.122023
 C         2.790501        -1.557611        -1.540933
 C         2.099987        -1.363432        -0.128149
 O         1.477207        -2.397263         0.607405
 C         3.228974        -0.515941         0.406348
 O         2.333169         0.328371         1.133771
 H        -0.212111        -0.394422         1.160020
 H        -0.111248         1.376418         0.731677
 H        -0.698041         0.113534        -0.465911
 H         1.557040         0.815891        -2.092793
 H         2.187695         1.785111        -0.684542
 H         4.324412         0.110281        -1.483795
 H         2.052926        -1.676733        -2.495826
 H         3.506061        -2.388387        -1.511743
 H         1.640241        -3.275040         0.107140
 H         4.162979        -0.854146         0.955742
