19
Iteration:  4530charge 0 multiplicity 1
 C        -0.050137         0.201183         0.272359
 C         1.458043        -0.012772         0.014212
 C         2.082377         0.796000        -1.144282
 C         3.338951        -0.066849        -1.162128
 C         2.738559        -1.527898        -1.440367
 C         2.178568        -1.399014        -0.042737
 O         1.462561        -2.378497         0.533305
 C         3.325015        -0.565301         0.459663
 O         2.374020         0.417101         1.092954
 H        -0.411429         0.170429         1.330104
 H        -0.191514         1.233686        -0.096148
 H        -0.721333        -0.368110        -0.306472
 H         1.395373         0.682819        -2.060569
 H         2.075133         1.960780        -0.831011
 H         4.343498         0.295583        -1.556013
 H         1.963424        -1.507271        -2.174606
 H         3.565670        -2.332483        -1.519248
 H         1.529048        -3.200197        -0.071506
 H         4.146948        -0.820605         1.131359
