19
Iteration:  4517charge 0 multiplicity 1
 C        -0.031607         0.335818         0.237526
 C         1.402468         0.055875         0.017697
 C         2.005090         0.758405        -1.161356
 C         3.335390        -0.059657        -1.078380
 C         2.769540        -1.469886        -1.431684
 C         2.156629        -1.436964        -0.095252
 O         1.486307        -2.530606         0.559402
 C         3.251570        -0.503442         0.461554
 O         2.450001         0.389706         1.102888
 H        -0.220764         0.312844         1.319677
 H        -0.384285         1.351080        -0.107804
 H        -0.553453        -0.488963        -0.211437
 H         1.537790         0.600965        -2.185131
 H         2.102904         1.926105        -0.949241
 H         4.241228         0.237549        -1.642645
 H         2.190487        -1.758000        -2.298716
 H         3.662023        -2.180715        -1.402402
 H         1.408970        -3.225774        -0.051847
 H         4.299170        -0.847349         0.882327
