19
Iteration:  4456charge 0 multiplicity 1
 C         0.027414         0.375355         0.399396
 C         1.385422         0.008255        -0.006320
 C         2.089100         0.813471        -1.253746
 C         3.405991        -0.080307        -1.107953
 C         2.837158        -1.456591        -1.489467
 C         2.101703        -1.442858        -0.137201
 O         1.580360        -2.618642         0.642997
 C         3.178523        -0.512193         0.407258
 O         2.266657         0.415680         1.080406
 H        -0.101457        -0.056393         1.443948
 H        -0.130353         1.438517         0.209147
 H        -0.777605        -0.091471        -0.233221
 H         1.653178         0.650822        -2.215741
 H         2.266116         1.840723        -1.008628
 H         4.422372         0.272119        -1.472759
 H         2.269938        -1.670586        -2.433153
 H         3.634630        -2.273787        -1.434405
 H         0.808427        -2.785306         0.126172
 H         4.032855        -0.709467         1.047419
