19
Iteration:  2933
 C        -0.056813         0.334622         0.362189
 C         1.420903         0.021575         0.023716
 C         2.009858         0.785423        -1.236047
 C         3.310377        -0.068774        -1.132708
 C         2.796860        -1.526600        -1.522017
 C         2.136286        -1.444767        -0.147892
 O         1.592460        -2.478619         0.558502
 C         3.225502        -0.559080         0.439939
 O         2.347262         0.407794         1.087687
 H        -0.260621        -0.280262         1.248627
 H        -0.059409         1.358878         0.565224
 H        -0.852402         0.108189        -0.315267
 H         1.505515         0.647988        -2.186385
 H         2.104784         1.786263        -0.863627
 H         4.218455         0.402501        -1.441511
 H         2.357548        -1.899016        -2.376928
 H         3.595592        -2.313269        -1.400986
 H         2.030145        -2.608836         1.362023
 H         4.139693        -0.745566         0.958605
