19
Iteration:  2910charge 0 multiplicity 1
 C        -0.054248         0.317314         0.490777
 C         1.364429         0.103671        -0.055463
 C         2.112221         0.784583        -1.184492
 C         3.353693        -0.156528        -1.174263
 C         2.774280        -1.499745        -1.410004
 C         2.104318        -1.429155        -0.141194
 O         1.665005        -2.610428         0.483192
 C         3.171336        -0.439352         0.393222
 O         2.313341         0.455029         1.042477
 H        -0.145269        -0.317487         1.381760
 H        -0.329338         1.289959         0.564836
 H        -0.773380        -0.184840        -0.200322
 H         1.623615         0.723054        -2.156922
 H         2.416580         1.736586        -0.815741
 H         4.272959         0.178541        -1.644272
 H         2.379395        -1.704195        -2.358319
 H         3.363373        -2.421504        -1.289571
 H         1.461062        -2.381337         1.468383
 H         4.099125        -0.768505         0.947190
