19
Iteration:  3371charge 0 multiplicity 1
 C        -0.099437         0.323806         0.394640
 C         1.385115         0.069744         0.027528
 C         2.040596         0.761121        -1.221053
 C         3.365627        -0.121540        -1.155348
 C         2.865664        -1.500702        -1.520790
 C         2.098771        -1.406430        -0.093624
 O         1.603653        -2.623794         0.553189
 C         3.305211        -0.436456         0.440157
 O         2.342381         0.379335         1.076168
 H        -0.345121        -0.295120         1.221706
 H        -0.357935         1.323902         0.807943
 H        -0.758525         0.301953        -0.442846
 H         1.734084         0.758251        -2.259338
 H         2.203703         1.854997        -0.950092
 H         4.153014         0.409461        -1.685806
 H         2.080096        -1.580587        -2.204351
 H         3.753049        -2.236818        -1.483947
 H         0.633442        -2.380596         0.804036
 H         4.170370        -0.695813         1.004792
