19
Iteration:  2476
 C        -0.019369         0.330621         0.324278
 C         1.418445         0.048813         0.052599
 C         1.988329         0.721582        -1.113366
 C         3.293386        -0.064929        -1.170881
 C         2.753769        -1.525852        -1.473913
 C         2.153001        -1.476383        -0.078523
 O         1.482041        -2.494452         0.562313
 C         3.340430        -0.436780         0.356404
 O         2.376497         0.417597         1.116666
 H        -0.476835         0.055967         1.301742
 H        -0.397623         1.268800         0.013305
 H        -0.390999        -0.470551        -0.322397
 H         1.521406         0.653925        -2.126489
 H         2.155591         1.799784        -1.031520
 H         4.214286         0.259301        -1.750427
 H         2.116868        -1.768194        -2.316538
 H         3.681551        -2.204447        -1.344774
 H         2.263747        -3.142344         0.594195
 H         4.366880        -0.551147         0.708352
