19
Iteration:   412charge 0 multiplicity 1
 C        -0.041162         0.167522         0.449082
 C         1.372619         0.033651        -0.005538
 C         2.118244         0.718031        -1.174303
 C         3.416427        -0.092989        -1.157706
 C         2.719076        -1.474851        -1.587035
 C         2.130107        -1.383195        -0.168135
 O         1.605586        -2.483838         0.577724
 C         3.239724        -0.494007         0.417035
 O         2.290580         0.451220         1.102469
 H        -0.140610        -0.424381         1.355890
 H        -0.236334         1.198681         0.635751
 H        -0.742047        -0.183127        -0.356265
 H         1.498963         0.546908        -2.094265
 H         2.171671         1.794291        -1.064305
 H         4.262730         0.305882        -1.619680
 H         2.071749        -1.281142        -2.427565
 H         3.568705        -2.170232        -1.815993
 H         1.621854        -2.329868         1.509096
 H         4.058682        -0.793486         1.051557
