19
Iteration:  3206
 C        -0.014202         0.165335         0.425118
 C         1.402920         0.038789         0.005322
 C         2.158412         0.758195        -1.217386
 C         3.381608        -0.120590        -1.144812
 C         2.841344        -1.486273        -1.455237
 C         2.034040        -1.378638        -0.108801
 O         1.480950        -2.497410         0.589350
 C         3.231921        -0.400999         0.409880
 O         2.306697         0.449764         1.069461
 H        -0.100980        -0.412956         1.415709
 H        -0.380040         1.162612         0.549845
 H        -0.534037        -0.255750        -0.395068
 H         1.654344         0.679082        -2.230302
 H         2.043307         1.886179        -1.130792
 H         4.268892         0.361838        -1.715090
 H         2.442831        -1.533781        -2.427893
 H         3.736690        -2.142146        -1.153114
 H         1.654827        -3.269055         0.033929
 H         4.106777        -0.785326         0.889993
