19
Iteration:  1917
 C        -0.078923         0.261736         0.480109
 C         1.428533         0.042568         0.028213
 C         1.976014         0.860356        -1.138336
 C         3.359672        -0.150104        -1.234123
 C         2.718645        -1.463629        -1.571079
 C         2.039032        -1.359148        -0.136736
 O         1.539374        -2.411789         0.632133
 C         3.300389        -0.564139         0.325067
 O         2.500216         0.319889         1.087679
 H        -0.230495        -0.311283         1.371198
 H        -0.381763         1.281437         0.602515
 H        -0.863396        -0.055693        -0.264056
 H         1.480144         0.624580        -2.039135
 H         2.360939         1.792830        -0.861237
 H         4.144977         0.191014        -1.892046
 H         1.903359        -1.553575        -2.369523
 H         3.411104        -2.399180        -1.640693
 H         2.349419        -2.787325         1.079620
 H         4.206765        -1.007149         0.800411
