19
Iteration:  4748
 C         0.047761         0.130427         0.401326
 C         1.514585         0.063249         0.068816
 C         2.200159         0.777050        -1.151684
 C         3.333394        -0.099067        -1.172298
 C         2.724227        -1.483216        -1.496293
 C         2.092998        -1.329414        -0.107180
 O         1.310532        -2.408774         0.415594
 C         3.303435        -0.519047         0.441040
 O         2.382579         0.388260         1.112495
 H         0.059112        -0.090785         1.499559
 H        -0.505213         1.079269         0.211778
 H        -0.400585        -0.701291        -0.196479
 H         1.663158         0.789188        -2.090910
 H         2.186492         1.844941        -0.987103
 H         4.198075         0.263759        -1.823189
 H         2.075114        -1.554588        -2.506550
 H         3.407223        -2.401492        -1.416195
 H         1.575828        -2.543137         1.310840
 H         3.982975        -0.998783         1.080600
