19
Iteration:  1758charge 0 multiplicity 1
 C         0.023005         0.251603         0.509832
 C         1.466192         0.069575         0.066843
 C         2.097480         0.808295        -1.136543
 C         3.278447        -0.122077        -1.260069
 C         2.528606        -1.513451        -1.533055
 C         2.121731        -1.393614        -0.092321
 O         1.520099        -2.497474         0.564474
 C         3.318383        -0.531117         0.369292
 O         2.466144         0.429597         1.039838
 H        -0.142136        -0.503188         1.312819
 H        -0.336580         1.167736         1.029033
 H        -0.575399         0.337730        -0.412491
 H         1.385906         0.817124        -2.045538
 H         2.292613         1.890348        -0.916329
 H         4.177166         0.258842        -1.772098
 H         1.788212        -1.330006        -2.360327
 H         3.113868        -2.413105        -1.587901
 H         2.062344        -3.330970         0.656322
 H         4.383651        -0.804005         0.680893
