19
Iteration:  2428charge 0 multiplicity 1
 C        -0.042450         0.230484         0.462873
 C         1.427234         0.080341        -0.003984
 C         2.095894         0.724947        -1.237212
 C         3.347861        -0.108527        -1.142030
 C         2.821279        -1.509072        -1.514798
 C         2.049716        -1.372210        -0.092114
 O         1.622914        -2.474233         0.556709
 C         3.221859        -0.445265         0.349436
 O         2.323651         0.351689         1.059633
 H        -0.140033        -0.200238         1.437968
 H        -0.304181         1.323878         0.604481
 H        -0.893460        -0.221793        -0.192232
 H         1.516805         0.536031        -2.137518
 H         2.335634         1.804473        -1.220990
 H         4.325059         0.242764        -1.362213
 H         2.103386        -1.411228        -2.376323
 H         3.415673        -2.428447        -1.519826
 H         1.347081        -2.128261         1.393686
 H         4.030273        -0.934067         0.979541
