19
Iteration:  3519charge 0 multiplicity 1
 C        -0.051153         0.267299         0.361835
 C         1.347172        -0.021874        -0.007424
 C         2.078874         0.739084        -1.149750
 C         3.337122        -0.078617        -1.137768
 C         2.890026        -1.487585        -1.482304
 C         2.079056        -1.426249        -0.161260
 O         1.506247        -2.419544         0.565926
 C         3.286442        -0.502755         0.422764
 O         2.344582         0.406239         1.071223
 H        -0.586531        -0.450651         0.985585
 H        -0.138351         1.226323         0.763435
 H        -0.624494         0.256711        -0.537711
 H         1.602202         0.890030        -2.149093
 H         2.123821         1.761797        -0.865472
 H         4.311233         0.200513        -1.617322
 H         2.241093        -1.725794        -2.350349
 H         3.456038        -2.322106        -1.352156
 H         2.195931        -2.902872         1.048195
 H         4.125075        -0.757431         1.066137
