19
Iteration:  4612
 C        -0.048744         0.367094         0.398747
 C         1.444636         0.117110         0.012579
 C         2.088163         0.752661        -1.276784
 C         3.335445        -0.095012        -1.137465
 C         2.821688        -1.530896        -1.482374
 C         2.177267        -1.427417        -0.094930
 O         1.521869        -2.589087         0.495016
 C         3.324972        -0.475890         0.400587
 O         2.297857         0.342056         1.194531
 H        -0.691254        -0.472435         0.666394
 H        -0.196386         1.189107         1.146533
 H        -0.517064         0.818664        -0.540086
 H         1.540962         0.656311        -2.199197
 H         2.178038         1.786243        -1.060339
 H         4.112271         0.324201        -1.719879
 H         2.234788        -1.709742        -2.493609
 H         3.560163        -2.334289        -1.465573
 H         0.712567        -2.319273         0.992374
 H         4.169752        -0.654076         1.139562
