19
Iteration:  3503
 C        -0.003560         0.164889         0.351936
 C         1.436084         0.067043         0.002167
 C         2.093396         0.802121        -1.183400
 C         3.411778        -0.084047        -1.116890
 C         2.763938        -1.545872        -1.484743
 C         2.082011        -1.353413        -0.132376
 O         1.468258        -2.436451         0.573761
 C         3.214695        -0.487121         0.385338
 O         2.300260         0.385792         1.073764
 H        -0.238331        -0.611644         1.105964
 H        -0.124258         1.222705         0.792816
 H        -0.738029        -0.084170        -0.496329
 H         1.635161         0.554416        -2.113825
 H         2.419210         1.842201        -0.873039
 H         4.247253         0.408921        -1.574568
 H         2.447303        -1.627369        -2.509445
 H         3.795306        -2.127572        -1.416258
 H         2.154263        -2.663737         1.290104
 H         4.047608        -1.029640         0.907861
