19
Iteration:   163
 C        -0.048797         0.192653         0.342349
 C         1.409838         0.047450         0.049785
 C         2.019512         0.669094        -1.217892
 C         3.397896        -0.053896        -1.121591
 C         2.824760        -1.422894        -1.533323
 C         2.067165        -1.340414        -0.125460
 O         1.571451        -2.423035         0.641469
 C         3.283759        -0.457297         0.400613
 O         2.314539         0.372219         1.122836
 H        -0.561419        -0.521423         1.028171
 H        -0.344607         1.184900         0.667460
 H        -0.632980         0.073196        -0.625603
 H         1.578733         0.380595        -2.133795
 H         1.996855         1.756108        -1.158946
 H         4.253190         0.170549        -1.582422
 H         2.400465        -1.769019        -2.464452
 H         3.654009        -2.158153        -1.344908
 H         1.876284        -3.208743         0.218244
 H         4.087098        -0.868593         0.984135
