19
Iteration:  1817
 C         0.020351         0.330434         0.584563
 C         1.437509         0.011861        -0.003527
 C         1.995448         0.792913        -1.178005
 C         3.227427        -0.083772        -1.242651
 C         2.709152        -1.486266        -1.535544
 C         2.148037        -1.444757        -0.172357
 O         1.573228        -2.422756         0.653701
 C         3.307632        -0.564149         0.296307
 O         2.426122         0.351325         1.121975
 H        -0.288027        -0.199122         1.452873
 H         0.155147         1.384036         0.837975
 H        -0.785927         0.176978        -0.031874
 H         1.510690         0.690487        -2.101120
 H         2.219917         1.848289        -1.042321
 H         4.171201         0.081698        -1.760005
 H         2.114469        -1.449089        -2.478201
 H         3.478515        -2.319068        -1.664583
 H         1.001180        -2.951003         0.113213
 H         4.224878        -0.961952         0.625937
