19
Iteration:   246charge 0 multiplicity 1
 C        -0.082347         0.153487         0.321903
 C         1.410624         0.123749         0.090619
 C         1.982188         0.774828        -1.152593
 C         3.347789        -0.094404        -1.111639
 C         2.773242        -1.497301        -1.494159
 C         2.106391        -1.381773        -0.126004
 O         1.697942        -2.543427         0.527710
 C         3.250020        -0.533588         0.463007
 O         2.426220         0.475326         1.029877
 H        -0.436586        -0.331383         1.220382
 H        -0.465650         1.177245         0.353453
 H        -0.592119        -0.199731        -0.625033
 H         1.291941         0.394506        -2.023534
 H         1.976947         1.875867        -1.110402
 H         4.471272         0.286676        -1.348202
 H         1.952175        -1.328369        -2.194515
 H         3.428199        -2.368424        -1.718542
 H         0.788196        -2.249274         0.893782
 H         4.093426        -0.874474         1.078463
