19
Iteration:  2619
 C        -0.076429         0.293721         0.360474
 C         1.336558         0.084521        -0.019329
 C         2.122748         0.777174        -1.212901
 C         3.338028        -0.053301        -1.134541
 C         2.776129        -1.629728        -1.477951
 C         2.088242        -1.441160        -0.111049
 O         1.657170        -2.540923         0.570852
 C         3.234888        -0.455284         0.404262
 O         2.274001         0.442374         1.086416
 H        -0.328697        -0.161981         1.379819
 H        -0.184283         1.409748         0.570013
 H        -0.772225         0.008030        -0.408971
 H         1.627852         1.012026        -2.171066
 H         2.488246         1.802221        -0.904428
 H         4.242230         0.289306        -1.801952
 H         2.128367        -1.725448        -2.382438
 H         3.542096        -2.446275        -1.309680
 H         2.440185        -2.838582         1.135438
 H         4.003055        -0.851815         1.007590
