19
Iteration:  3354charge 0 multiplicity 1
 C        -0.076615         0.216581         0.368333
 C         1.436922         0.022181         0.065114
 C         2.082156         0.726662        -1.155907
 C         3.331320        -0.100440        -1.126373
 C         2.773400        -1.535859        -1.452697
 C         2.145582        -1.406775        -0.102687
 O         1.576585        -2.499864         0.473601
 C         3.272641        -0.451173         0.350721
 O         2.381043         0.469616         1.112633
 H        -0.680538        -0.598545         0.914586
 H        -0.175382         1.213414         0.849920
 H        -0.692427         0.171230        -0.618592
 H         1.375215         0.694552        -2.026782
 H         2.161588         1.820445        -1.015897
 H         4.294079         0.228100        -1.541664
 H         2.341821        -1.684236        -2.495176
 H         3.506887        -2.343904        -1.375709
 H         0.678030        -2.245388         0.917839
 H         4.226859        -0.594207         0.994429
