19
Iteration:  1408
 C        -0.023350         0.190397         0.513382
 C         1.416595         0.153020         0.047337
 C         1.987383         0.740300        -1.234637
 C         3.339239        -0.073489        -1.251700
 C         2.772318        -1.536793        -1.524668
 C         2.053035        -1.342319        -0.168666
 O         1.405283        -2.415564         0.580402
 C         3.307158        -0.559998         0.357530
 O         2.548083         0.336282         1.130840
 H        -0.136389        -0.410101         1.431685
 H        -0.161475         1.168784         1.041992
 H        -0.843084         0.058340        -0.329773
 H         1.434912         0.642456        -2.185676
 H         2.162837         1.820109        -1.268508
 H         4.090953         0.469427        -1.804461
 H         2.009264        -1.603238        -2.306369
 H         3.541004        -2.333831        -1.426639
 H         2.025138        -2.726188         1.259770
 H         4.327514        -0.836870         0.684286
