19
Iteration:  1033charge 0 multiplicity 1
 C        -0.097816         0.256242         0.368742
 C         1.425100         0.031395         0.096995
 C         1.984581         0.825506        -1.188424
 C         3.338103        -0.106441        -1.296109
 C         2.789085        -1.558705        -1.549718
 C         2.137728        -1.423150        -0.049741
 O         1.532496        -2.447160         0.622200
 C         3.297234        -0.469492         0.457544
 O         2.409853         0.402528         1.111175
 H        -0.628839        -0.401185         1.151370
 H        -0.315353         1.314746         0.700560
 H        -0.536978         0.031799        -0.570595
 H         1.217618         0.720226        -2.037061
 H         2.216266         1.944724        -1.122774
 H         4.212031         0.282486        -1.799015
 H         2.125300        -1.560702        -2.499095
 H         3.618637        -2.317168        -1.507773
 H         2.122587        -3.259861         0.431594
 H         4.336451        -0.868344         0.797705
