19
Iteration:  2597charge 0 multiplicity 1
 C        -0.069283         0.304902         0.344751
 C         1.326504         0.091546        -0.000599
 C         2.026545         0.728670        -1.184398
 C         3.352720        -0.134860        -1.172510
 C         2.776450        -1.484422        -1.482094
 C         2.162439        -1.436237        -0.045588
 O         1.619177        -2.580358         0.517884
 C         3.225671        -0.463529         0.447535
 O         2.364776         0.455397         1.054863
 H        -0.582734        -0.346737         1.134164
 H        -0.059417         1.368704         0.707916
 H        -0.641586         0.262817        -0.586510
 H         1.338353         0.680517        -2.060578
 H         2.159705         1.837349        -1.007710
 H         4.367284         0.228021        -1.663355
 H         2.253555        -1.826248        -2.392798
 H         3.574833        -2.226636        -1.141745
 H         2.028094        -2.790981         1.337805
 H         4.138736        -0.629350         0.959421
