19
Iteration:  1707
 C         0.079714         0.237766         0.600566
 C         1.462454         0.092733         0.105551
 C         1.952707         0.790041        -1.192383
 C         3.230898        -0.094165        -1.246953
 C         2.771674        -1.497759        -1.549800
 C         2.049619        -1.358729        -0.206213
 O         1.430780        -2.422740         0.550039
 C         3.309719        -0.566640         0.256552
 O         2.503413         0.317919         1.101513
 H         0.030538        -0.302389         1.584273
 H        -0.248261         1.318030         0.631644
 H        -0.684918        -0.102188        -0.082073
 H         1.434087         0.467213        -2.068742
 H         2.209064         1.884886        -0.967052
 H         4.294365         0.210729        -1.663653
 H         2.061848        -1.679711        -2.416364
 H         3.807150        -2.076247        -1.427275
 H         1.597522        -2.251880         1.531278
 H         4.201094        -1.197039         0.579261
