19
Iteration:   416
 C        -0.046346         0.151574         0.437767
 C         1.421808         0.037659        -0.026519
 C         2.122552         0.752542        -1.151086
 C         3.382269        -0.101948        -1.157109
 C         2.700804        -1.475293        -1.560661
 C         2.130868        -1.377770        -0.119401
 O         1.617309        -2.513447         0.559672
 C         3.226262        -0.471320         0.404838
 O         2.288717         0.430418         1.081340
 H        -0.142020        -0.406909         1.401239
 H        -0.326521         1.238388         0.624941
 H        -0.775542        -0.084651        -0.290112
 H         1.569857         0.559256        -2.124407
 H         2.201210         1.906018        -1.044122
 H         4.290610         0.274730        -1.662419
 H         2.219688        -1.341069        -2.555076
 H         3.449537        -2.237033        -1.738803
 H         1.525515        -2.203538         1.532507
 H         4.166913        -0.733412         1.003832
