19
Iteration:  2872charge 0 multiplicity 1
 C         0.030338         0.211943         0.308140
 C         1.435222        -0.003698         0.047962
 C         1.945128         0.650819        -1.182615
 C         3.342685        -0.065038        -1.166763
 C         2.788802        -1.453841        -1.454817
 C         2.156234        -1.426948        -0.095134
 O         1.544530        -2.470410         0.496559
 C         3.248421        -0.503996         0.440902
 O         2.430251         0.449664         1.095596
 H        -0.111505        -0.103838         1.354416
 H        -0.298962         1.322916         0.535815
 H        -0.627935        -0.245656        -0.433800
 H         1.246424         0.546532        -2.052261
 H         1.964122         1.778596        -0.930803
 H         4.189674         0.431966        -1.645184
 H         2.025304        -1.596678        -2.309559
 H         3.565266        -2.201298        -1.265950
 H         0.802712        -2.036968         0.864591
 H         4.230121        -0.646919         0.973565
