19
Iteration:  4316
 C        -0.078630         0.430817         0.339208
 C         1.388519        -0.062656        -0.000414
 C         1.987652         0.660473        -1.209504
 C         3.392121        -0.049553        -1.067350
 C         2.938150        -1.470006        -1.400399
 C         2.117705        -1.451324        -0.035760
 O         1.465628        -2.521451         0.480113
 C         3.289633        -0.465924         0.426836
 O         2.343673         0.411042         1.058281
 H        -0.497138        -0.128974         1.156229
 H        -0.121460         1.507451         0.406736
 H        -0.805260         0.280583        -0.469709
 H         1.445378         0.525024        -2.177704
 H         1.995408         1.717895        -0.970558
 H         4.358297         0.251536        -1.566310
 H         2.313359        -1.621361        -2.304153
 H         3.796733        -2.058543        -1.354485
 H         1.849091        -3.413948         0.235995
 H         4.225117        -0.563469         1.141832
