19
Iteration:   884
 C        -0.016891         0.174474         0.416477
 C         1.359274         0.045403        -0.061567
 C         2.081963         0.803443        -1.262664
 C         3.344988        -0.074491        -1.147771
 C         2.762013        -1.504209        -1.479564
 C         2.166051        -1.370484        -0.081054
 O         1.538923        -2.447399         0.675862
 C         3.261483        -0.482915         0.385222
 O         2.315149         0.379126         1.075190
 H        -0.185764        -0.596476         1.210034
 H        -0.240502         1.261419         0.496665
 H        -0.889233        -0.027968        -0.510152
 H         1.461709         1.024600        -2.128687
 H         2.267238         1.770733        -0.847562
 H         4.370733         0.306495        -1.557446
 H         2.118348        -1.493995        -2.348467
 H         3.561657        -2.331136        -1.525707
 H         2.075534        -3.270484         0.439081
 H         4.217982        -0.808611         0.873186
