19
Iteration:   445charge 0 multiplicity 1
 C        -0.079307         0.214993         0.358652
 C         1.446006         0.074882         0.030315
 C         2.031571         0.829621        -1.109456
 C         3.282814        -0.029930        -1.271323
 C         2.761694        -1.627702        -1.427910
 C         2.139599        -1.387044        -0.037602
 O         1.635672        -2.580538         0.492314
 C         3.234577        -0.476278         0.377390
 O         2.422023         0.466229         1.119607
 H        -0.480919        -0.345715         1.218685
 H        -0.412513         1.225903         0.484671
 H        -0.625957        -0.101037        -0.555141
 H         1.396588         0.888302        -2.019470
 H         2.259630         1.815253        -0.751598
 H         4.079510         0.308932        -1.801059
 H         2.253722        -1.926797        -2.308913
 H         3.781758        -2.113421        -1.556695
 H         0.823970        -2.365189         0.976936
 H         4.140938        -0.908139         0.822830
