19
Iteration:  1276charge 0 multiplicity 1
 C         0.054721         0.289758         0.575683
 C         1.440371         0.044350         0.034909
 C         2.086598         0.728648        -1.228440
 C         3.261833        -0.138602        -1.178334
 C         2.687358        -1.503378        -1.535246
 C         2.033816        -1.345954        -0.191809
 O         1.642944        -2.451292         0.596066
 C         3.185633        -0.563696         0.403961
 O         2.412367         0.470080         1.066736
 H        -0.151234        -0.195023         1.560990
 H        -0.064533         1.417057         0.568093
 H        -0.729082        -0.149431        -0.238308
 H         1.373321         0.575673        -2.109475
 H         2.334027         1.736707        -0.889283
 H         4.224757         0.322889        -1.575097
 H         2.213391        -1.643623        -2.491208
 H         3.459266        -2.272702        -1.571314
 H         1.346264        -3.266899         0.134559
 H         4.042307        -1.117592         0.782441
