19
Iteration:  2685
 C        -0.053968         0.047477         0.349806
 C         1.476463         0.122163         0.037207
 C         2.022535         0.804776        -1.232202
 C         3.297770        -0.070481        -1.195648
 C         2.825933        -1.606413        -1.375071
 C         2.201693        -1.379812        -0.072229
 O         1.389709        -2.396903         0.547949
 C         3.323363        -0.470089         0.456037
 O         2.400055         0.463692         1.061547
 H        -0.257093        -0.443021         1.324227
 H        -0.583054         1.045611         0.422418
 H        -0.428611        -0.378608        -0.514536
 H         1.419293         0.768778        -2.150732
 H         2.364983         1.857889        -1.004765
 H         3.941742         0.460013        -1.954473
 H         2.073651        -1.694944        -2.174638
 H         3.754146        -2.193877        -1.426761
 H         1.732401        -3.264386         0.449000
 H         4.153440        -0.755611         1.009003
