19
Iteration:   542
 C        -0.021588         0.191573         0.358143
 C         1.391825         0.023247         0.013308
 C         1.996913         0.774427        -1.213204
 C         3.279561        -0.099282        -1.159839
 C         2.738815        -1.455018        -1.472722
 C         2.145215        -1.335333        -0.059747
 O         1.555128        -2.513468         0.520144
 C         3.250344        -0.489524         0.423765
 O         2.459304         0.442082         1.093270
 H        -0.380552        -0.591173         1.078550
 H        -0.387565         1.155976         0.670211
 H        -0.607152        -0.136983        -0.591890
 H         1.557305         0.530065        -2.180326
 H         2.092339         1.822634        -0.947140
 H         4.147645         0.215894        -1.721776
 H         2.159921        -1.528596        -2.381211
 H         3.484821        -2.301756        -1.339290
 H         2.152969        -2.697465         1.268796
 H         4.111148        -0.809432         0.992409
