19
Iteration:   480
 C        -0.014405         0.259629         0.391549
 C         1.392616        -0.009653         0.018817
 C         2.006152         0.684896        -1.228902
 C         3.335763         0.010947        -1.126273
 C         2.783932        -1.450083        -1.492865
 C         2.201505        -1.421642        -0.085243
 O         1.577041        -2.488365         0.533119
 C         3.290229        -0.449809         0.372141
 O         2.366282         0.362385         1.099867
 H        -0.348714        -0.250908         1.349496
 H        -0.015707         1.354175         0.607539
 H        -0.684786        -0.071006        -0.350413
 H         1.557634         0.187506        -2.146101
 H         1.636137         1.786060        -1.163656
 H         4.188845         0.409847        -1.516624
 H         2.032039        -1.504767        -2.275226
 H         3.480795        -2.320061        -1.471543
 H         0.873161        -2.195614         1.146911
 H         4.181743        -1.038636         0.839641
