19
Iteration:   361
 C        -0.040144         0.189779         0.394441
 C         1.404856        -0.008983         0.059997
 C         1.980789         0.781295        -1.190425
 C         3.262861        -0.080307        -1.278355
 C         2.873601        -1.605821        -1.449915
 C         2.195936        -1.327123        -0.074015
 O         1.496174        -2.475926         0.563881
 C         3.290388        -0.407381         0.413837
 O         2.372907         0.429707         1.101527
 H        -0.481118        -0.503921         1.172468
 H        -0.222050         1.279981         0.652298
 H        -0.540686         0.002102        -0.513032
 H         1.392582         1.004353        -2.110700
 H         2.217899         1.788530        -0.683905
 H         4.089601         0.426862        -1.687441
 H         2.327539        -1.704947        -2.391568
 H         3.686611        -2.263904        -1.270195
 H         1.606596        -3.380961         0.160074
 H         4.330392        -0.570606         0.863512
