19
Iteration:  2791charge 0 multiplicity 1
 C        -0.094450         0.313803         0.340502
 C         1.346339         0.061962        -0.026792
 C         2.092554         0.765193        -1.212637
 C         3.317016        -0.130756        -1.123047
 C         2.765209        -1.474293        -1.573793
 C         2.156707        -1.395887        -0.003247
 O         1.594296        -2.578701         0.565262
 C         3.244361        -0.488503         0.452916
 O         2.373984         0.443340         1.103784
 H        -0.416972        -0.515363         1.064152
 H        -0.276085         1.336826         0.672397
 H        -0.795567         0.037946        -0.536037
 H         1.594620         0.539232        -2.209294
 H         2.251292         1.862197        -1.088535
 H         4.148915         0.454951        -1.658331
 H         2.160772        -1.555605        -2.448502
 H         3.539465        -2.330620        -1.705409
 H         2.174144        -2.801078         1.269351
 H         4.126984        -0.847496         1.032087
