19
Iteration:  1696
 C         0.046224         0.286088         0.611691
 C         1.441552         0.051683         0.074486
 C         2.005607         0.753452        -1.171830
 C         3.259147        -0.088148        -1.259246
 C         2.714255        -1.545142        -1.624199
 C         2.066954        -1.375840        -0.175478
 O         1.471950        -2.445721         0.525249
 C         3.283805        -0.526022         0.333947
 O         2.538348         0.337516         1.128742
 H        -0.230329        -0.169130         1.604757
 H        -0.190968         1.379014         0.727778
 H        -0.511515        -0.294288        -0.104039
 H         1.274252         0.741239        -1.971182
 H         2.071685         1.895484        -1.042380
 H         4.128131         0.498173        -1.788786
 H         2.303058        -1.760726        -2.660365
 H         3.469988        -2.464722        -1.537571
 H         1.341597        -2.072941         1.435736
 H         4.306135        -0.864818         0.735880
