19
Iteration:  1599
 C         0.124850         0.364881         0.530125
 C         1.431540         0.029758         0.020125
 C         1.964102         0.774641        -1.117331
 C         3.247033        -0.064204        -1.302087
 C         2.688825        -1.483015        -1.593749
 C         2.168216        -1.484939        -0.137829
 O         1.472904        -2.417805         0.612704
 C         3.252221        -0.565442         0.316444
 O         2.441217         0.307549         1.101369
 H        -0.027729        -0.393575         1.364384
 H         0.121293         1.338089         1.126572
 H        -0.625897         0.195679        -0.246708
 H         1.486988         0.789783        -2.138390
 H         2.085903         1.911304        -1.070897
 H         4.144972         0.423897        -1.917724
 H         2.138822        -1.673826        -2.451671
 H         3.569334        -2.189266        -1.626050
 H         1.687696        -2.754062         1.526874
 H         4.201367        -0.914168         0.757618
