19
Iteration:  3129charge 0 multiplicity 1
 C        -0.137588         0.270008         0.290005
 C         1.393725         0.096193         0.021787
 C         2.076836         0.801836        -1.223958
 C         3.263163        -0.087992        -1.084246
 C         2.807000        -1.574495        -1.531155
 C         2.178629        -1.407384        -0.122654
 O         1.573133        -2.468963         0.549004
 C         3.317068        -0.554551         0.443913
 O         2.340777         0.411510         1.094194
 H        -0.487121        -0.486562         1.097136
 H        -0.444123         1.201740         0.723548
 H        -0.648496         0.163928        -0.654364
 H         1.373214         0.534249        -2.002681
 H         2.393660         1.782726        -0.853258
 H         4.225893         0.439048        -1.408588
 H         2.162337        -1.735754        -2.313414
 H         3.683185        -2.325730        -1.433601
 H         2.035746        -2.630909         1.330504
 H         4.229089        -0.712610         1.034373
