19
Iteration:  3577
 C        -0.081620         0.282893         0.350146
 C         1.338985         0.037496        -0.032125
 C         2.030234         0.760463        -1.171289
 C         3.352577        -0.069611        -1.074626
 C         2.832081        -1.582598        -1.444358
 C         2.130199        -1.417958        -0.103024
 O         1.584092        -2.493169         0.524305
 C         3.277128        -0.474924         0.433850
 O         2.342954         0.507293         1.090322
 H        -0.333904        -0.398800         1.240621
 H        -0.169539         1.368941         0.697100
 H        -0.775877         0.134812        -0.517053
 H         1.746240         0.411017        -2.172156
 H         2.476388         1.723369        -0.849348
 H         4.232488         0.187067        -1.643551
 H         2.159367        -1.713052        -2.303845
 H         3.649986        -2.296660        -1.416528
 H         1.465204        -3.265416        -0.038914
 H         4.093913        -0.963731         1.012102
