19
Iteration:  2264
 C        -0.055082         0.247770         0.445493
 C         1.360034         0.042608         0.039313
 C         2.006442         0.727613        -1.124865
 C         3.320561        -0.082503        -1.176045
 C         2.723504        -1.526906        -1.560807
 C         2.235842        -1.425642        -0.150293
 O         1.545791        -2.445338         0.640773
 C         3.281612        -0.508558         0.391894
 O         2.485125         0.420650         1.076403
 H        -0.402818        -0.082327         1.366478
 H        -0.218296         1.313147         0.196116
 H        -0.593959        -0.279824        -0.323112
 H         1.367039         0.618412        -2.009757
 H         2.026923         1.862308        -1.037545
 H         4.295487         0.325258        -1.680305
 H         1.953655        -1.575602        -2.392960
 H         3.474905        -2.307142        -1.482760
 H         0.803522        -2.556135        -0.025187
 H         4.268530        -0.783064         0.888382
