19
Iteration:  3708
 C        -0.045172         0.236501         0.339566
 C         1.410836         0.062331        -0.059067
 C         2.086468         0.765165        -1.286969
 C         3.380996        -0.096275        -1.060077
 C         2.881954        -1.483923        -1.441908
 C         2.041070        -1.407869        -0.127312
 O         1.557427        -2.555427         0.574308
 C         3.212538        -0.488152         0.438787
 O         2.273667         0.426794         1.110783
 H        -0.547335        -0.329229         1.098540
 H         0.111253         1.267402         0.654081
 H        -0.700175         0.296803        -0.535405
 H         1.583431         0.756509        -2.318292
 H         2.102058         1.922252        -1.151473
 H         4.268088         0.326760        -1.591233
 H         2.312092        -1.454391        -2.375179
 H         3.507537        -2.396727        -1.394712
 H         2.308666        -2.790705         1.239317
 H         4.059940        -0.764963         1.117878
