19
Iteration:  2439charge 0 multiplicity 1
 C        -0.046001         0.308972         0.446245
 C         1.359693         0.078655         0.016232
 C         2.055514         0.709048        -1.206627
 C         3.379623        -0.103829        -1.106065
 C         2.784492        -1.542654        -1.505359
 C         2.122608        -1.404745        -0.207590
 O         1.582627        -2.456729         0.556223
 C         3.221927        -0.505343         0.378929
 O         2.344626         0.379987         1.066309
 H        -0.117529        -0.075990         1.447579
 H        -0.410196         1.373431         0.456263
 H        -0.689646        -0.394019        -0.200503
 H         1.523079         0.592846        -2.146853
 H         2.104960         1.764375        -0.899015
 H         4.228413         0.275426        -1.602806
 H         2.247011        -1.701601        -2.480742
 H         3.667043        -2.177977        -1.464935
 H         1.845525        -2.353142         1.499107
 H         4.162900        -0.725242         0.976579
