19
Iteration:  3280
 C        -0.051057         0.261334         0.332396
 C         1.380251         0.071207        -0.028322
 C         2.051276         0.820402        -1.205909
 C         3.313427        -0.056301        -1.122330
 C         2.821616        -1.495860        -1.482226
 C         2.149463        -1.439501        -0.153531
 O         1.550311        -2.483434         0.596689
 C         3.191048        -0.529943         0.477631
 O         2.358664         0.376294         1.085013
 H        -0.224590        -0.355777         1.288910
 H        -0.254673         1.284453         0.486754
 H        -0.665746        -0.068419        -0.501440
 H         1.611129         0.898069        -2.195892
 H         2.255196         1.851311        -1.133368
 H         4.351069         0.044760        -1.609683
 H         2.021146        -1.703766        -2.313590
 H         3.745635        -2.063040        -1.528891
 H         2.228255        -2.979714         1.061927
 H         4.044407        -0.934378         1.067539
