19
Iteration:  4038
 C         0.003232         0.258341         0.247535
 C         1.424715         0.048789         0.024139
 C         2.036539         0.731826        -1.181834
 C         3.322498        -0.071208        -1.121257
 C         2.909423        -1.485118        -1.462139
 C         2.114080        -1.396850        -0.122895
 O         1.468190        -2.463716         0.516236
 C         3.218633        -0.495766         0.480993
 O         2.351134         0.346620         1.128025
 H        -0.230884         0.232163         1.325376
 H        -0.253464         1.323228        -0.137994
 H        -0.768409        -0.444528        -0.277468
 H         1.304487         0.648130        -2.016277
 H         2.125534         1.888238        -1.142759
 H         4.077525         0.326139        -1.789399
 H         2.289512        -1.673898        -2.351799
 H         3.863246        -2.155622        -1.286264
 H         1.962840        -2.810845         1.246669
 H         4.101892        -0.709054         1.088444
