19
Iteration:  3809
 C        -0.035279         0.137575         0.291326
 C         1.398316        -0.002678        -0.000599
 C         2.160642         0.834407        -1.197541
 C         3.417119        -0.095196        -1.083112
 C         2.799719        -1.505211        -1.427556
 C         2.062268        -1.380867        -0.103705
 O         1.439683        -2.442066         0.598280
 C         3.296310        -0.399996         0.435197
 O         2.295937         0.400516         1.046002
 H        -0.187113        -0.355464         1.210095
 H        -0.439601         1.181035         0.385630
 H        -0.638858        -0.584042        -0.296893
 H         1.647692         0.548589        -2.174832
 H         2.441651         1.985000        -1.003234
 H         4.132190         0.399377        -1.659105
 H         2.348182        -1.466122        -2.370451
 H         3.491014        -2.415069        -1.313260
 H         1.917839        -3.206065         0.415348
 H         4.254132        -0.638845         0.875424
