19
Iteration:   794
 C         2.601078         2.283364         0.769169
 C         2.366063         0.814653         1.117971
 C         2.658492         0.493363         2.654750
 C         2.038654        -0.936787         2.463073
 O         0.605147        -0.582426         2.153438
 C         1.070509        -0.183207         0.848709
 C         0.042344         0.324446        -0.085350
 C         2.300942        -1.163419         0.885276
 O         3.227235        -0.132849         0.383987
 H         1.998828         3.115054         1.375536
 H         3.665418         2.283362         0.913219
 H         2.351498         2.413756        -0.291920
 H         3.710306         0.515452         2.994164
 H         1.990081         1.109296         3.394683
 H         2.120013        -1.713843         3.148019
 H        -0.913166        -0.058863         0.115460
 H        -0.115157         1.462483         0.045606
 H         0.177881         0.204067        -1.113376
 H         2.327540        -2.045524         0.314105
