19
Iteration:  2178
 C         2.297721         2.371628         1.054083
 C         2.260890         0.957125         1.284259
 C         2.440809         0.395825         2.689927
 C         2.021167        -1.099230         2.362366
 O         0.592479        -0.773834         1.931671
 C         1.221610        -0.139958         0.836328
 C         0.270446         0.098487        -0.359808
 C         2.531795        -1.003685         0.813983
 O         3.299958         0.169400         0.567572
 H         2.894889         2.860209         1.784607
 H         2.555301         2.634979         0.018340
 H         1.287831         2.772302         1.293925
 H         3.467483         0.695143         3.167167
 H         1.719731         0.851478         3.288994
 H         2.027547        -1.917226         3.101308
 H        -0.734413        -0.086206         0.053211
 H         0.371044         1.112992        -0.828915
 H         0.443443        -0.873788        -0.950218
 H         2.728004        -1.901794         0.244959
