19
Iteration:  2233charge 0 multiplicity 1
 C         2.170228         2.392309         0.956074
 C         2.258959         0.969687         1.292621
 C         2.358275         0.341097         2.814358
 C         1.992083        -1.044160         2.405322
 O         0.624949        -0.878162         1.874865
 C         1.203509        -0.217110         0.779400
 C         0.370024         0.144814        -0.294480
 C         2.555313        -0.986314         0.765813
 O         3.352622         0.248037         0.625097
 H         3.072367         2.593982         0.384750
 H         1.326548         2.706790         0.281234
 H         2.211953         3.072762         1.796815
 H         3.483417         0.362539         3.097153
 H         1.730020         0.837491         3.534615
 H         2.149971        -1.973519         3.000265
 H         0.385226         1.243603        -0.370311
 H         0.746116        -0.349663        -1.237058
 H        -0.699072        -0.249234         0.006358
 H         2.624111        -1.928739         0.215705
