19
Iteration:  3684charge 0 multiplicity 1
 C         1.368228         2.371458         1.411023
 C         1.865722         0.944259         1.573095
 C         1.708655         0.153112         2.836787
 C         2.064882        -1.232488         2.155361
 O         0.921969        -1.335305         1.187110
 C         1.575546        -0.221705         0.499703
 C         1.084832         0.136120        -0.858102
 C         2.943431        -0.610563         1.082803
 O         3.368545         0.737850         1.290315
 H         0.268628         2.294684         1.419033
 H         1.840409         2.903043         2.271362
 H         1.712964         2.948596         0.592578
 H         2.461340         0.340129         3.560450
 H         0.742506         0.213345         3.478989
 H         2.196321        -2.038303         2.830034
 H         1.128290        -0.588183        -1.656343
 H        -0.022052         0.396734        -0.790426
 H         1.467773         1.170932        -1.131652
 H         3.807233        -1.127058         0.712959
