19
Iteration:  4480charge 0 multiplicity 1
 C         1.318439         2.353285         1.394724
 C         1.891932         0.915111         1.574637
 C         1.677904         0.131430         2.828263
 C         2.098928        -1.209707         2.113956
 O         1.052844        -1.399153         1.155950
 C         1.638872        -0.221511         0.442189
 C         0.861019         0.104580        -0.750323
 C         3.046731        -0.550824         1.016353
 O         3.361721         0.817467         1.384550
 H         0.224101         2.342616         1.404130
 H         1.681746         2.975145         2.186488
 H         1.606897         2.961284         0.518704
 H         2.400614         0.397651         3.654339
 H         0.677170         0.064849         3.169546
 H         2.372292        -1.946663         2.896843
 H        -0.057518        -0.475896        -0.806125
 H         0.581296         1.118820        -0.432338
 H         1.296865         0.256367        -1.763525
 H         3.773976        -1.218036         0.421354
