19
Iteration:  1992
 C         2.477416         2.452310         0.951888
 C         2.153824         0.941289         1.237730
 C         2.557082         0.415865         2.703349
 C         2.075357        -1.008724         2.355340
 O         0.589457        -0.788179         2.097008
 C         1.151771        -0.174546         0.831498
 C         0.247476         0.134521        -0.363990
 C         2.332264        -1.072839         0.873727
 O         3.248327         0.077542         0.532474
 H         1.767050         3.088777         0.432548
 H         2.730830         2.856824         1.986548
 H         3.403935         2.468629         0.271848
 H         3.694207         0.701566         2.879975
 H         1.913159         0.802509         3.479402
 H         2.302079        -1.814717         3.070477
 H         0.072810         1.209381        -0.605351
 H         0.583263        -0.450501        -1.301654
 H        -0.766289        -0.349168        -0.247636
 H         2.514181        -1.962579         0.231377
