19
Iteration:  4227charge 0 multiplicity 1
 C         1.553616         2.460046         1.611073
 C         1.876575         1.049247         1.646648
 C         1.730590         0.188273         2.906754
 C         2.104164        -1.271569         2.101577
 O         0.860834        -1.327988         1.249080
 C         1.443500        -0.246864         0.526765
 C         1.147362        -0.082598        -0.962686
 C         2.853182        -0.536788         0.957377
 O         3.240405         0.787636         1.181499
 H         0.576905         2.763332         1.782138
 H         2.198099         2.903113         2.367017
 H         1.955052         2.709504         0.640759
 H         2.475874         0.254609         3.666542
 H         0.680449         0.103460         3.304923
 H         2.331146        -2.017850         2.885402
 H         0.221141        -0.478566        -1.425142
 H         1.475212         0.952184        -1.285079
 H         2.017514        -0.594608        -1.442172
 H         3.512329        -1.220681         0.501450
