19
Iteration:   638charge 0 multiplicity 1
 C         2.637333         2.247478         0.611255
 C         2.379795         0.901323         1.218397
 C         2.677729         0.351847         2.680685
 C         2.021462        -1.016851         2.404140
 O         0.587138        -0.646219         2.192782
 C         1.132494         0.002648         0.955363
 C         0.043274         0.275789        -0.130901
 C         2.221090        -1.058029         0.839099
 O         3.207226        -0.059409         0.494119
 H         1.925243         3.009124         0.718117
 H         3.526137         2.773544         1.009762
 H         2.726695         2.151390        -0.487382
 H         3.720093         0.403636         2.773127
 H         2.115500         0.842945         3.484105
 H         2.173979        -1.956829         3.082356
 H        -0.762172        -0.508055        -0.128563
 H        -0.401098         1.184954         0.053340
 H         0.413980         0.307475        -1.168294
 H         2.060160        -1.931556         0.086591
