19
Iteration:  3510
 C         1.319929         2.308339         1.402460
 C         1.831798         0.967437         1.563640
 C         1.752335         0.115962         2.970232
 C         2.022723        -1.204767         2.128999
 O         0.841861        -1.266699         1.190218
 C         1.630886        -0.189089         0.484686
 C         1.167818         0.130414        -0.872836
 C         2.991883        -0.584099         0.977803
 O         3.349691         0.716422         1.383232
 H         0.260265         2.462803         1.773561
 H         1.994654         3.118623         1.865826
 H         1.265692         2.316343         0.303284
 H         2.446427         0.488068         3.731163
 H         0.657880         0.037365         3.338788
 H         2.390982        -2.067055         2.664521
 H         1.793996        -0.290081        -1.638337
 H         0.172244        -0.256447        -1.157048
 H         1.224878         1.235929        -1.120260
 H         3.703220        -1.328210         0.545630
