19
Iteration:  4246
 C         1.496112         2.430469         1.594673
 C         1.820541         0.973718         1.495637
 C         1.771176         0.147360         2.919848
 C         2.018988        -1.194843         2.185673
 O         0.850141        -1.280984         1.270876
 C         1.565119        -0.189101         0.495482
 C         1.153090        -0.026748        -0.905517
 C         2.923043        -0.605517         0.929535
 O         3.291390         0.759048         1.217033
 H         0.355192         2.380481         1.554550
 H         1.744358         3.043503         2.516991
 H         1.850980         2.985936         0.739340
 H         2.632930         0.347383         3.593798
 H         0.714592        -0.012008         3.341969
 H         2.220664        -2.136616         2.624396
 H         0.067919         0.031285        -0.885967
 H         1.588708         0.888889        -1.382909
 H         1.568998        -0.958586        -1.407126
 H         3.594132        -1.197172         0.250825
