19
Iteration:  2519charge 0 multiplicity 1
 C         1.942149         2.471966         1.103333
 C         2.159321         0.976594         1.387026
 C         2.250552         0.257900         2.926477
 C         2.078455        -1.129247         2.244756
 O         0.682589        -0.965754         1.790821
 C         1.262556        -0.193019         0.716643
 C         0.535417         0.083430        -0.541965
 C         2.642246        -0.922729         0.801639
 O         3.324461         0.391434         0.803423
 H         2.680740         2.661764         0.242812
 H         0.882873         2.528668         0.803474
 H         2.000033         3.041200         2.043842
 H         3.210860         0.569701         3.203850
 H         1.440318         0.216901         3.715328
 H         2.253899        -2.093552         2.723591
 H         1.154226        -0.108518        -1.425575
 H        -0.479043        -0.318155        -0.635080
 H         0.563777         1.157652        -0.704754
 H         3.304222        -1.564960         0.213039
