19
Iteration:  4167
 C         1.453826         2.327404         1.430969
 C         2.040175         0.986155         1.519248
 C         1.593401         0.154388         2.830826
 C         1.964479        -1.214829         2.205390
 O         0.892264        -1.254543         1.213095
 C         1.650075        -0.187994         0.421147
 C         0.892087         0.071255        -0.839668
 C         3.023797        -0.612850         0.966020
 O         3.440723         0.721438         1.397782
 H         0.591567         2.605949         2.119244
 H         2.266320         3.067041         1.590148
 H         1.123123         2.638616         0.400463
 H         2.234157         0.279072         3.804262
 H         0.548052         0.221524         3.043293
 H         2.086451        -2.128064         2.822139
 H         0.351922        -0.820671        -1.199516
 H         0.159619         0.782616        -0.524181
 H         1.571137         0.327196        -1.654443
 H         3.918893        -1.282209         0.754103
