19
Iteration:   977
 C         2.655982         2.251271         0.680525
 C         2.353221         0.858849         1.109334
 C         2.600637         0.498069         2.620759
 C         2.033024        -0.985334         2.436699
 O         0.604858        -0.678078         2.168748
 C         1.061968        -0.126739         0.941315
 C         0.083885         0.403610        -0.032761
 C         2.301879        -1.138268         0.836212
 O         3.190572        -0.135087         0.430409
 H         2.465230         3.028619         1.416288
 H         3.701271         2.235745         0.490997
 H         2.061023         2.582333        -0.200367
 H         3.626021         0.627893         2.892114
 H         1.919627         1.159501         3.326256
 H         2.072833        -1.712848         3.233940
 H        -0.376964        -0.480856        -0.510644
 H        -0.633311         1.094495         0.444580
 H         0.703240         0.919951        -0.718122
 H         2.211704        -2.153448         0.273558
