19
Iteration:  4448
 C         1.362682         2.302964         1.341323
 C         1.842885         0.921331         1.625699
 C         1.716902         0.091542         2.954589
 C         2.183839        -1.220591         2.133824
 O         1.006850        -1.398605         1.251158
 C         1.528375        -0.217579         0.546813
 C         0.994903         0.222559        -0.875639
 C         2.993741        -0.545924         0.948218
 O         3.273542         0.813493         1.268316
 H         0.281643         2.389175         1.500149
 H         1.720429         3.026774         2.036903
 H         1.609193         2.626337         0.322404
 H         2.342797         0.339753         3.840991
 H         0.778533        -0.115712         3.376111
 H         2.547232        -2.018242         2.813982
 H         0.759147        -0.599991        -1.565219
 H         0.069691         0.742722        -0.574326
 H         1.768109         0.972154        -1.199742
 H         3.743948        -1.213089         0.376202
