19
Iteration:  1171charge 0 multiplicity 1
 C         2.562675         2.261536         0.712173
 C         2.461818         0.859936         1.186607
 C         2.720647         0.424157         2.605908
 C         1.975305        -0.959694         2.414805
 O         0.581438        -0.567014         2.113533
 C         1.080180        -0.118039         0.897135
 C        -0.057350         0.361608        -0.088968
 C         2.295381        -1.119242         0.877743
 O         3.290326        -0.151217         0.448670
 H         1.834090         2.866682         1.348855
 H         3.569453         2.697707         1.073829
 H         2.352177         2.383739        -0.365723
 H         3.769419         0.293789         2.733070
 H         2.338773         1.110936         3.378345
 H         1.970890        -1.785478         3.176015
 H        -0.382565        -0.586437        -0.619073
 H        -0.879631         0.592381         0.598091
 H         0.226394         1.044294        -0.876575
 H         2.358926        -2.213103         0.629632
