19
Iteration:  4750
 C         1.146351         2.283184         1.556786
 C         1.829959         0.994316         1.616967
 C         1.863849         0.007794         2.868483
 C         2.142335        -1.213664         2.105207
 O         1.076883        -1.329160         1.210572
 C         1.566324        -0.216291         0.564835
 C         0.988667         0.058223        -0.824788
 C         2.992006        -0.488321         0.881657
 O         3.288923         0.886210         1.229561
 H         0.134952         2.319075         1.891911
 H         1.555936         3.018495         2.252583
 H         1.163628         2.661782         0.498018
 H         2.651781         0.400486         3.577898
 H         0.879862        -0.174394         3.284256
 H         2.512435        -2.109448         2.688287
 H         0.524656        -0.883732        -1.256466
 H         0.297248         0.929034        -0.884671
 H         1.858049         0.393855        -1.478935
 H         3.804526        -1.123946         0.490078
