19
Iteration:  3935charge 0 multiplicity 1
 C         1.366773         2.459248         1.634639
 C         1.896872         1.024327         1.598583
 C         1.748604         0.127706         2.903239
 C         2.048664        -1.170741         2.169839
 O         0.884966        -1.186680         1.185994
 C         1.446324        -0.161871         0.455715
 C         1.129340        -0.105772        -0.975327
 C         2.878150        -0.606078         0.953189
 O         3.455259         0.678585         1.285624
 H         0.535092         2.636163         2.313423
 H         2.216347         3.073922         2.011007
 H         1.094322         2.701232         0.584905
 H         2.485744         0.261411         3.646688
 H         0.714471         0.188329         3.351505
 H         2.311064        -2.215670         2.549540
 H         1.455733        -1.077734        -1.289071
 H         0.013110        -0.216492        -1.075274
 H         1.606173         0.669360        -1.537272
 H         3.532995        -1.242290         0.356510
