19
Iteration:  4678
 C         1.389104         2.313667         1.658072
 C         1.858719         0.978245         1.586461
 C         1.723267         0.094181         2.900298
 C         2.176358        -1.129493         2.126335
 O         1.105441        -1.475000         1.207582
 C         1.506449        -0.255311         0.453770
 C         0.997362         0.022627        -0.899142
 C         2.916725        -0.479052         0.947730
 O         3.232442         0.907844         1.204657
 H         0.281439         2.585422         1.288224
 H         1.338262         2.732184         2.699294
 H         1.966821         2.998928         1.003774
 H         2.487667         0.287085         3.644907
 H         0.667573         0.137845         3.199743
 H         2.546802        -1.897660         2.799461
 H         1.710496        -0.144801        -1.653684
 H         0.116239        -0.637303        -1.002215
 H         0.588324         1.047179        -0.827603
 H         3.664012        -1.131552         0.301638
