19
Iteration:  4814charge 0 multiplicity 1
 C         1.244135         2.487509         1.636896
 C         1.826305         0.963251         1.642258
 C         1.750405         0.059218         2.831362
 C         2.257399        -1.295582         2.078364
 O         1.078206        -1.420908         1.111548
 C         1.541887        -0.213915         0.464726
 C         0.900584        -0.039079        -0.813057
 C         3.065034        -0.455506         0.925894
 O         3.264325         0.923381         1.325493
 H         0.310780         2.608730         2.145881
 H         2.175703         3.107834         1.846702
 H         0.999223         2.624255         0.526276
 H         2.254829         0.383938         3.808684
 H         0.709190        -0.180098         3.040746
 H         2.638362        -2.143533         2.754782
 H        -0.144523        -0.482193        -0.597638
 H         0.840927         0.992718        -1.222161
 H         1.330806        -0.768543        -1.571356
 H         3.966836        -0.806655         0.412332
