19
Iteration:   784charge 0 multiplicity 1
 C         2.616483         2.259010         0.757490
 C         2.366300         0.843377         1.143270
 C         2.631615         0.460702         2.658571
 C         2.075017        -0.960190         2.470525
 O         0.571839        -0.619751         2.243548
 C         1.100200        -0.131069         0.920729
 C         0.031858         0.312970        -0.170155
 C         2.256589        -1.100158         0.841752
 O         3.226547        -0.151914         0.332789
 H         2.292441         3.039515         1.596514
 H         3.673080         2.495714         0.653511
 H         2.279804         2.594018        -0.245156
 H         3.704169         0.583346         3.103091
 H         1.847487         1.147688         3.194113
 H         2.222374        -1.664770         3.232283
 H        -0.868931        -0.241749        -0.135769
 H        -0.126444         1.476320        -0.044260
 H         0.544702         0.170504        -1.123771
 H         2.284435        -2.042596         0.421634
