19
Iteration:  2300
 C         2.255254         2.509858         1.115927
 C         2.276825         0.922671         1.355161
 C         2.319108         0.355051         2.818902
 C         2.039287        -1.084119         2.363662
 O         0.619413        -0.906220         1.824656
 C         1.252675        -0.208526         0.794574
 C         0.286433         0.030356        -0.487822
 C         2.531896        -0.991498         0.851911
 O         3.330847         0.320571         0.601222
 H         1.753261         2.843203         0.159660
 H         1.774375         3.082361         1.946791
 H         3.250654         2.814312         0.912760
 H         3.310564         0.467680         3.243265
 H         1.485387         0.898075         3.420396
 H         2.162309        -1.957951         3.013752
 H         0.751573        -0.439137        -1.417407
 H        -0.565602        -0.634880        -0.257194
 H        -0.050759         1.161262        -0.554192
 H         2.959838        -1.832111         0.306983
