19
Iteration:  2260
 C         2.202453         2.398924         1.099795
 C         2.298840         0.936197         1.274856
 C         2.385028         0.416564         2.795681
 C         2.092266        -1.063073         2.367340
 O         0.640421        -0.870161         1.859494
 C         1.177503        -0.126884         0.680352
 C         0.162495         0.115159        -0.446355
 C         2.603911        -1.026253         0.857270
 O         3.390621         0.198674         0.705139
 H         2.639903         2.606478         0.085941
 H         1.161316         2.709239         0.988761
 H         2.632844         3.043762         1.920629
 H         3.315774         0.754366         3.169857
 H         1.492193         0.759096         3.439272
 H         2.221399        -1.968864         2.933705
 H         0.507430         0.897249        -1.164669
 H         0.015421        -0.863666        -0.920571
 H        -0.761755         0.398294        -0.011464
 H         2.789279        -1.962897         0.315978
