19
Iteration:  4477charge 0 multiplicity 1
 C         1.310677         2.332213         1.381510
 C         1.867232         0.937476         1.556305
 C         1.704253         0.154149         2.782312
 C         2.105759        -1.237118         2.116732
 O         1.063267        -1.408068         1.167666
 C         1.642210        -0.236022         0.477015
 C         0.860997         0.143484        -0.758085
 C         3.026590        -0.547491         0.989560
 O         3.360094         0.810347         1.401890
 H         0.245453         2.390726         1.420816
 H         1.693864         3.045717         2.173966
 H         1.650484         2.951296         0.489831
 H         2.312334         0.348712         3.661475
 H         0.721870         0.008482         3.289089
 H         2.396199        -1.968598         2.901393
 H        -0.056299        -0.469394        -0.843143
 H         0.527656         1.082590        -0.366169
 H         1.425177         0.274733        -1.628396
 H         3.693032        -1.223521         0.576515
