19
Iteration:  4305
 C         1.355696         2.331310         1.310898
 C         1.859934         0.920849         1.520456
 C         1.734563         0.100311         2.857558
 C         2.043858        -1.229782         2.186354
 O         0.982425        -1.308800         1.213117
 C         1.565076        -0.204168         0.555435
 C         0.950903         0.225047        -0.715160
 C         3.048106        -0.616418         0.974662
 O         3.379809         0.758789         1.332074
 H         0.316045         2.387245         1.231739
 H         1.693512         3.074175         1.989667
 H         1.683173         2.491857         0.264413
 H         2.264855         0.301354         3.787281
 H         0.678991         0.072691         3.155768
 H         2.237251        -2.279319         2.635168
 H         0.785048         1.356196        -0.821188
 H         1.684787        -0.052509        -1.506782
 H        -0.021825        -0.184736        -0.908627
 H         3.776593        -1.250674         0.508585
