19
Iteration:  2328charge 0 multiplicity 1
 C         2.199549         2.431804         1.091648
 C         2.164192         0.981469         1.419846
 C         2.350248         0.405118         2.808953
 C         2.057955        -1.080065         2.262087
 O         0.611437        -0.939446         1.920349
 C         1.188974        -0.193940         0.808214
 C         0.443816         0.041079        -0.532562
 C         2.502124        -0.928408         0.738889
 O         3.329429         0.249518         0.709411
 H         1.213599         2.769897         0.808721
 H         2.457872         3.124727         1.940730
 H         2.952172         2.706376         0.257201
 H         3.450465         0.661064         2.999403
 H         1.664089         0.771282         3.509516
 H         2.269122        -1.985116         2.872327
 H         0.624849        -0.779942        -1.178180
 H        -0.604364         0.090445        -0.223074
 H         0.751396         0.951974        -0.935795
 H         2.852339        -1.721463         0.052504
