19
Iteration:  4850
 C         1.213255         2.249540         1.780126
 C         1.820248         0.947141         1.585183
 C         1.840822         0.140114         2.940173
 C         2.274809        -1.114102         2.123889
 O         1.011947        -1.382684         1.142402
 C         1.558098        -0.159363         0.462034
 C         0.963532        -0.113736        -1.000553
 C         2.944045        -0.460784         0.894869
 O         3.293753         0.910547         1.279599
 H         0.126680         2.271885         2.006209
 H         1.648051         2.759242         2.591638
 H         1.415804         2.834964         0.847362
 H         2.578031         0.497731         3.675094
 H         0.796013         0.114451         3.334143
 H         2.497861        -2.043357         2.577548
 H        -0.014904         0.357091        -0.994639
 H         1.575994         0.386494        -1.829509
 H         0.897973        -1.229395        -1.254739
 H         3.798998        -0.812089         0.200171
