19
Iteration:   804charge 0 multiplicity 1
 C         2.603027         2.240104         0.722219
 C         2.378941         0.843835         1.163406
 C         2.630627         0.441861         2.587015
 C         1.982569        -0.907699         2.435874
 O         0.652481        -0.570038         2.086688
 C         1.120284        -0.158230         0.848259
 C        -0.000820         0.339786        -0.037193
 C         2.307135        -1.154680         0.864809
 O         3.210663        -0.129804         0.473700
 H         1.833707         2.864530         1.349705
 H         3.549747         2.628855         1.055818
 H         2.488311         2.417147        -0.348682
 H         3.657477         0.445400         2.622517
 H         2.174870         0.988953         3.470140
 H         2.054762        -1.679637         3.130877
 H        -0.865978        -0.108993         0.370545
 H        -0.009097         1.425033         0.172291
 H         0.119952         0.097056        -1.025863
 H         2.492285        -2.187802         0.558342
