19
Iteration:  2883
 C         1.726170         2.380576         1.326533
 C         2.075969         0.933854         1.435698
 C         1.973762         0.352441         2.880139
 C         2.005553        -1.106175         2.250508
 O         0.862422        -1.261580         1.471081
 C         1.361200        -0.228449         0.678456
 C         0.704431         0.124760        -0.690907
 C         2.829760        -0.760441         0.884769
 O         3.348878         0.548190         0.970730
 H         0.755171         2.559559         0.858555
 H         1.783756         2.781547         2.370173
 H         2.516966         2.877179         0.811128
 H         2.771586         0.642603         3.498426
 H         0.945769         0.530763         3.326968
 H         2.216622        -1.941109         2.934215
 H        -0.100580         0.818801        -0.628600
 H         1.516427         0.492292        -1.345285
 H         0.178616        -0.752680        -1.148718
 H         3.495376        -1.518078         0.406525
