19
Iteration:  1191
 C         2.650442         2.242678         0.831498
 C         2.318942         0.831813         1.116412
 C         2.648423         0.441469         2.616054
 C         2.004877        -0.861410         2.522333
 O         0.628479        -0.588837         2.168389
 C         1.116388        -0.112638         0.867835
 C         0.083577         0.245837        -0.122748
 C         2.277329        -1.118538         0.830341
 O         3.160674        -0.122385         0.359472
 H         2.214571         2.925007         1.607920
 H         3.824988         2.305209         0.934637
 H         2.146458         2.476030        -0.113810
 H         3.839850         0.340724         2.806575
 H         2.104799         1.058224         3.301175
 H         2.093548        -1.641518         3.238084
 H        -0.528806        -0.584207        -0.624043
 H        -0.615474         0.924426         0.442784
 H         0.454730         0.964725        -0.939047
 H         2.203836        -1.986218         0.296207
