19
Iteration:  1730
 C         2.437652         2.226948         0.778822
 C         2.340844         0.829083         1.242843
 C         2.631714         0.481364         2.656442
 C         2.055979        -1.005270         2.307479
 O         0.623319        -0.568525         2.122276
 C         1.097629        -0.099084         0.887368
 C         0.107068         0.272762        -0.120938
 C         2.278247        -1.039281         0.762516
 O         3.323085        -0.113329         0.556837
 H         2.724941         2.936526         1.611965
 H         3.268601         2.229752         0.033245
 H         1.432449         2.627854         0.334188
 H         3.683623         0.500135         2.802699
 H         2.038144         0.972328         3.538173
 H         2.035939        -1.837215         3.123880
 H         0.157735         1.321048        -0.603772
 H         0.206081        -0.384593        -1.057405
 H        -0.935797         0.051119         0.348539
 H         2.428179        -2.068668         0.172035
