19
Iteration:  4742
 C         1.135840         2.279552         1.610133
 C         1.862153         0.931944         1.686946
 C         1.867893         0.086318         2.875099
 C         2.194566        -1.207519         2.131127
 O         1.036107        -1.319170         1.195269
 C         1.542538        -0.154372         0.526455
 C         0.975245         0.002521        -0.872463
 C         2.985236        -0.464152         0.871255
 O         3.308377         0.863661         1.237214
 H         0.070658         1.963587         1.698371
 H         1.603397         2.956357         2.274378
 H         1.277070         2.649038         0.581423
 H         2.637065         0.411525         3.588111
 H         0.883331         0.125026         3.363042
 H         2.238747        -2.204815         2.514158
 H         0.771959        -0.916480        -1.316117
 H         0.149565         0.718449        -1.055912
 H         1.865096         0.350590        -1.432858
 H         3.819723        -1.007215         0.261906
