19
Iteration:  2381charge 0 multiplicity 1
 C         2.018407         2.297396         1.168382
 C         2.257150         0.908273         1.380206
 C         2.316940         0.348147         2.766964
 C         1.995041        -0.989018         2.373548
 O         0.656954        -0.884699         1.747394
 C         1.276974        -0.236362         0.721439
 C         0.346885         0.143716        -0.456776
 C         2.648300        -0.965442         0.807184
 O         3.418392         0.307989         0.718242
 H         1.535109         2.796511         1.962725
 H         2.927667         2.806407         0.887044
 H         1.426427         2.519580         0.214263
 H         3.246272         0.671799         3.349748
 H         1.385943         0.735454         3.151619
 H         2.105271        -1.834004         3.072531
 H        -0.646755        -0.301681        -0.246620
 H         0.351659         1.266071        -0.473747
 H         0.730047        -0.272045        -1.332303
 H         2.997228        -1.804427         0.170600
