19
Iteration:   150
 C         2.566343         2.240604         0.794900
 C         2.489485         0.864970         1.196381
 C         2.759738         0.382955         2.663917
 C         1.976836        -0.930030         2.414830
 O         0.561309        -0.497228         2.125405
 C         1.133363        -0.026598         0.869860
 C        -0.015331         0.246154        -0.091156
 C         2.246373        -1.106993         0.856231
 O         3.239913        -0.175202         0.381739
 H         2.090169         2.929564         1.525622
 H         3.598838         2.524865         0.634324
 H         2.035179         2.314985        -0.193366
 H         3.916042         0.219698         2.761435
 H         2.278724         0.903081         3.494458
 H         1.964994        -1.662934         3.172382
 H        -0.614599        -0.697371        -0.176546
 H        -0.770075         1.128850         0.361057
 H         0.148350         0.512480        -1.191056
 H         2.222152        -2.028601         0.375769
