19
Iteration:  3271charge 0 multiplicity 1
 C         1.409478         2.391792         1.547423
 C         1.985556         1.004413         1.618969
 C         1.613816         0.152275         2.881611
 C         2.110313        -1.132553         2.146639
 O         1.003977        -1.250204         1.214273
 C         1.587148        -0.251949         0.480389
 C         0.926506        -0.094403        -0.932177
 C         2.952957        -0.587608         0.978381
 O         3.345492         0.753696         1.277235
 H         1.998359         2.855937         2.336994
 H         1.480881         2.963691         0.601074
 H         0.362646         2.420266         1.873140
 H         2.113294         0.478987         3.816966
 H         0.476085         0.105746         2.900523
 H         2.512657        -1.937207         2.755272
 H         0.902771        -1.099251        -1.485865
 H        -0.089593         0.375947        -0.807659
 H         1.456290         0.598471        -1.613503
 H         3.758339        -1.157197         0.441425
