19
Iteration:   561charge 0 multiplicity 1
 C         2.499143         2.314512         0.830325
 C         2.454882         0.855898         1.162514
 C         2.726975         0.386924         2.650433
 C         2.042770        -0.975275         2.461921
 O         0.572688        -0.525263         2.246777
 C         1.092173        -0.086136         0.902490
 C         0.112159         0.299695        -0.269600
 C         2.178042        -1.092077         0.860061
 O         3.223509        -0.187046         0.376835
 H         1.851721         2.905816         1.398514
 H         3.542143         2.750337         0.849679
 H         2.156965         2.519942        -0.202972
 H         3.799110         0.363503         2.805527
 H         2.335637         1.041389         3.422353
 H         2.195851        -1.877452         3.197958
 H        -0.751217        -0.455694        -0.264111
 H        -0.316236         1.256002        -0.211195
 H         0.657335         0.074606        -1.252511
 H         2.081881        -2.187841         0.444969
