19
Iteration:   895
 C         2.636715         2.361831         0.823394
 C         2.459079         0.839961         1.153484
 C         2.771813         0.416836         2.532096
 C         2.083593        -0.903028         2.469826
 O         0.609942        -0.580179         2.211257
 C         0.984406        -0.102465         0.953933
 C         0.063441         0.290596        -0.191308
 C         2.189891        -1.139877         0.892242
 O         3.097677        -0.202183         0.352289
 H         1.552941         2.816569         0.770489
 H         3.126147         2.769528         1.799993
 H         3.194823         2.479432        -0.183745
 H         3.960518         0.279870         2.807727
 H         2.285268         1.072536         3.232410
 H         2.122278        -1.525040         3.463237
 H        -0.225005        -0.623349        -0.786947
 H        -0.879067         0.879285         0.043681
 H         0.569934         0.796265        -1.104917
 H         2.264844        -2.161230         0.676425
