19
Iteration:   799
 C         2.592683         2.278149         0.748054
 C         2.382066         0.825346         1.140808
 C         2.629859         0.477676         2.619718
 C         2.003029        -0.904712         2.451619
 O         0.640006        -0.572765         2.108112
 C         1.076704        -0.176205         0.844804
 C         0.038703         0.339271        -0.050636
 C         2.310171        -1.166862         0.880570
 O         3.212342        -0.126595         0.430078
 H         1.977345         2.918480         1.277100
 H         3.683161         2.371640         1.086266
 H         2.349650         2.386370        -0.323415
 H         3.801689         0.507907         2.832706
 H         2.133777         0.968172         3.415715
 H         2.090773        -1.811657         3.159212
 H        -0.969526        -0.106041         0.294759
 H        -0.055217         1.410341         0.153142
 H         0.112388         0.116545        -1.195424
 H         2.406919        -2.208767         0.405654
