19
Iteration:  4040
 C         1.567183         2.429091         1.524031
 C         1.889608         0.990468         1.601068
 C         1.722024         0.122034         2.836628
 C         1.996367        -1.220237         2.136488
 O         0.929057        -1.202778         1.201624
 C         1.606680        -0.204715         0.434847
 C         0.917074        -0.108132        -0.882685
 C         2.981090        -0.611496         0.959674
 O         3.288453         0.749825         1.351833
 H         0.614700         2.708472         1.007081
 H         1.463788         2.899926         2.561554
 H         2.297851         3.094398         1.131859
 H         2.370852         0.553367         3.600741
 H         0.677068         0.093750         3.349722
 H         2.473391        -2.022969         2.662362
 H         0.612333        -1.154373        -1.135293
 H        -0.027820         0.461364        -0.748367
 H         1.598993         0.471733        -1.680060
 H         3.862062        -1.179322         0.410317
