19
Iteration:  3119
 C         1.551636         2.472844         1.455258
 C         1.859728         0.985694         1.559029
 C         1.790691         0.134056         2.854374
 C         2.144829        -1.193709         2.193977
 O         0.875567        -1.268764         1.399788
 C         1.475035        -0.198535         0.558251
 C         0.880058        -0.042925        -0.859053
 C         2.904997        -0.606647         0.877589
 O         3.392424         0.719302         1.157956
 H         1.359644         2.741813         0.420383
 H         0.632860         2.630169         2.111070
 H         2.415007         3.129877         1.786640
 H         2.600156         0.440205         3.581831
 H         0.840779         0.176185         3.392240
 H         2.322313        -2.066648         2.847082
 H         0.206553         0.829951        -1.119656
 H         1.729681         0.088881        -1.550538
 H         0.375892        -0.939729        -1.079962
 H         3.529556        -1.404696         0.352746
