19
Iteration:  3973
 C         1.343312         2.271100         1.349600
 C         1.881613         0.896073         1.490371
 C         1.775109         0.103235         2.844321
 C         2.036018        -1.196156         2.212364
 O         0.834883        -1.236954         1.250820
 C         1.630634        -0.294043         0.536745
 C         1.043687         0.232162        -0.798289
 C         2.958535        -0.616693         1.041040
 O         3.384547         0.743834         1.281527
 H         0.380004         2.358089         1.905746
 H         2.035389         2.912512         1.931542
 H         1.217622         2.694013         0.359147
 H         2.661455         0.326927         3.539035
 H         0.866276         0.442400         3.337774
 H         2.137621        -2.129816         2.692317
 H         1.167864        -0.513604        -1.672645
 H         0.113985         0.799319        -0.904141
 H         1.815043         1.055090        -1.064216
 H         3.649981        -1.365073         0.582786
