19
Iteration:  2645charge 0 multiplicity 1
 C         1.996975         2.431542         1.264521
 C         2.065525         0.982103         1.424142
 C         2.185218         0.212268         2.878714
 C         2.060562        -1.092077         2.276827
 O         0.716710        -1.045583         1.635487
 C         1.280744        -0.168554         0.682102
 C         0.552420        -0.074867        -0.627176
 C         2.696505        -0.761752         0.842234
 O         3.330010         0.503066         0.847048
 H         0.954929         2.778564         1.499493
 H         2.660872         2.948310         2.001204
 H         2.169079         2.565466         0.221491
 H         3.136950         0.577107         3.279133
 H         1.311250         0.488450         3.554299
 H         2.184259        -1.958933         2.909813
 H        -0.326081         0.576525        -0.433242
 H         1.208606         0.476071        -1.345228
 H         0.351132        -1.049452        -1.246454
 H         3.121432        -1.622811         0.280454
