19
Iteration:   893charge 0 multiplicity 1
 C         2.643803         2.370271         0.829518
 C         2.457455         0.840680         1.154320
 C         2.775924         0.414730         2.528544
 C         2.080213        -0.881575         2.478643
 O         0.607067        -0.592939         2.218068
 C         0.991799        -0.125829         0.961417
 C         0.074634         0.291532        -0.202149
 C         2.193415        -1.135457         0.894441
 O         3.089380        -0.205573         0.351658
 H         1.565921         2.867534         0.707120
 H         3.107741         2.762328         1.741655
 H         3.155726         2.468771        -0.160891
 H         3.832583         0.260395         2.757211
 H         2.313293         1.077910         3.252269
 H         2.150736        -1.546786         3.418706
 H        -0.291968        -0.511814        -0.776787
 H        -0.843543         0.930771         0.016078
 H         0.544954         0.758276        -1.079180
 H         2.277271        -2.152236         0.612207
