19
Iteration:  3868charge 0 multiplicity 1
 C         1.493107         2.477839         1.541318
 C         1.976856         0.996314         1.580654
 C         1.654951         0.163793         2.792005
 C         2.079066        -1.175246         2.179307
 O         0.976796        -1.454478         1.192349
 C         1.507997        -0.259854         0.544896
 C         0.978673         0.074060        -0.878792
 C         2.915738        -0.576923         0.944481
 O         3.326796         0.738556         1.323520
 H         0.431503         2.744214         1.366635
 H         1.910964         2.983210         2.464821
 H         2.038555         2.972385         0.773509
 H         2.159563         0.536055         3.636187
 H         0.514811         0.130474         2.915576
 H         2.294541        -2.036972         2.814632
 H         0.898314        -0.750299        -1.523594
 H        -0.061967         0.392700        -0.866337
 H         1.625417         0.804994        -1.419036
 H         3.642601        -1.286421         0.476237
