19
Iteration:  3835
 C         1.294784         2.235346         1.263661
 C         1.960479         0.920092         1.620854
 C         1.787636         0.038272         2.920374
 C         1.972424        -1.196014         2.182396
 O         0.894914        -1.234699         1.256090
 C         1.673037        -0.152562         0.466337
 C         0.998287         0.225921        -0.840472
 C         3.022572        -0.607216         0.940169
 O         3.361685         0.732149         1.382126
 H         0.219066         2.323089         1.007187
 H         1.459536         2.868925         2.181183
 H         1.968299         2.581132         0.542482
 H         2.524822         0.437546         3.506617
 H         0.787596         0.226952         3.433671
 H         1.993978        -2.164370         2.628862
 H         0.821354        -0.669961        -1.333534
 H         0.083739         0.670989        -0.431415
 H         1.383760         1.008697        -1.552121
 H         3.732727        -1.365670         0.507614
