19
Iteration:  1615
 C         2.499163         2.328183         0.770051
 C         2.389332         0.889246         1.151496
 C         2.698825         0.396323         2.641935
 C         1.985975        -0.960993         2.387431
 O         0.602013        -0.605118         2.101035
 C         1.140445        -0.029601         0.873523
 C         0.013692         0.292761        -0.080052
 C         2.257448        -1.094993         0.887802
 O         3.312355        -0.217945         0.467067
 H         1.454715         2.764513         0.558956
 H         3.036323         3.035772         1.531369
 H         3.013947         2.420567        -0.230427
 H         3.894356         0.307075         2.677565
 H         2.278653         1.042949         3.377916
 H         2.052951        -1.838562         3.102424
 H        -0.960886         0.325904         0.545089
 H         0.130721         1.304073        -0.476285
 H        -0.083196        -0.562665        -0.841393
 H         2.304879        -2.049771         0.418498
