19
Iteration:  4466
 C         1.313043         2.355145         1.349452
 C         1.825317         0.981904         1.528793
 C         1.730084         0.113427         2.802728
 C         2.163099        -1.196939         2.165915
 O         1.071130        -1.444273         1.193587
 C         1.550715        -0.273913         0.534384
 C         0.884644         0.266534        -0.722539
 C         3.023138        -0.570432         0.970980
 O         3.336779         0.765384         1.401390
 H         0.242633         2.342998         1.399804
 H         1.717898         2.967221         2.206092
 H         1.662174         2.573466         0.294838
 H         2.472453         0.581895         3.469099
 H         0.659018         0.019506         3.119155
 H         2.383873        -2.201926         2.583380
 H         0.294975        -0.568742        -1.187342
 H         0.262139         1.156739        -0.754921
 H         1.642004         0.387657        -1.435713
 H         3.847683        -1.067268         0.572171
