19
Iteration:    90
 C         2.639920         2.244114         0.723718
 C         2.425771         0.819183         1.125867
 C         2.656995         0.510777         2.705680
 C         2.092919        -0.896840         2.425922
 O         0.654370        -0.615138         2.210389
 C         1.097081        -0.052482         0.981488
 C         0.127308         0.310745        -0.126234
 C         2.108491        -1.103821         0.863953
 O         3.086554        -0.199080         0.291396
 H         2.082596         2.905786         1.336299
 H         3.667929         2.432628         1.073116
 H         2.616072         2.431389        -0.303750
 H         3.595381         0.520591         3.061238
 H         2.045289         1.045500         3.458183
 H         2.216362        -1.796387         3.155732
 H         0.159060        -0.560939        -0.808941
 H        -0.815051         0.411715         0.189314
 H         0.531501         1.223208        -0.605380
 H         1.826941        -2.132127         0.347794
