19
Iteration:  3782
 C         1.403369         2.382741         1.568159
 C         1.885739         0.959637         1.558422
 C         1.680263         0.162252         2.840569
 C         2.077377        -1.234154         2.216007
 O         0.905757        -1.296962         1.282776
 C         1.489119        -0.299247         0.535227
 C         1.184199         0.131519        -0.963613
 C         2.997690        -0.622594         0.993576
 O         3.291916         0.753558         1.193920
 H         0.399020         2.380123         1.992058
 H         2.113907         2.935321         2.227364
 H         1.436257         2.915213         0.657194
 H         2.262420         0.588979         3.603427
 H         0.608620         0.107064         3.269312
 H         2.089268        -2.137852         2.815434
 H         1.298052        -0.762276        -1.558617
 H         0.165067         0.640037        -1.162050
 H         1.947980         0.912060        -1.326269
 H         3.487922        -1.207270         0.212573
