19
Iteration:  2702charge 0 multiplicity 1
 C         1.772853         2.364013         1.279369
 C         2.115518         0.941042         1.441612
 C         2.164259         0.324814         2.881387
 C         2.023623        -1.071710         2.282973
 O         0.698384        -1.070806         1.586567
 C         1.422123        -0.242451         0.629629
 C         0.644357         0.125891        -0.580263
 C         2.728128        -0.865651         0.840559
 O         3.378651         0.440272         0.856756
 H         1.553923         2.903988         2.241644
 H         2.488396         2.883243         0.666527
 H         0.927028         2.497632         0.622496
 H         3.065253         0.657154         3.387391
 H         1.284355         0.749899         3.467941
 H         2.161430        -2.003485         2.829740
 H         0.746357         1.135150        -0.997102
 H         0.861566        -0.547098        -1.443578
 H        -0.472529         0.005908        -0.239536
 H         3.283258        -1.669427         0.403868
