19
Iteration:  2360charge 0 multiplicity 1
 C         2.065153         2.400664         1.099631
 C         2.232349         0.993433         1.358960
 C         2.309480         0.357995         2.901517
 C         1.996011        -1.056424         2.350468
 O         0.659293        -0.932945         1.822861
 C         1.248237        -0.174770         0.692129
 C         0.390796         0.118289        -0.511097
 C         2.627987        -0.951205         0.842289
 O         3.376817         0.226185         0.642517
 H         1.178764         2.572194         1.680027
 H         2.897892         2.952169         1.568002
 H         1.905181         2.762106         0.009854
 H         3.408027         0.544706         3.191274
 H         1.687544         0.873390         3.587530
 H         2.076981        -1.974482         2.972037
 H        -0.311365        -0.699965        -0.673811
 H        -0.229599         0.993762        -0.196872
 H         0.880986         0.314482        -1.413794
 H         3.064336        -1.850427         0.358008
