19
Iteration:     5charge 0 multiplicity 1
 C         2.609955         2.255659         0.694627
 C         2.426581         0.842534         1.148216
 C         2.705428         0.385419         2.620934
 C         1.975648        -0.946890         2.413102
 O         0.620782        -0.521609         2.206383
 C         1.073588        -0.031001         0.904996
 C         0.051981         0.286103        -0.042422
 C         2.224990        -1.110342         0.833118
 O         3.228253        -0.159311         0.425155
 H         1.869802         2.827039         1.231212
 H         3.623435         2.596804         0.817399
 H         2.312916         2.458283        -0.313623
 H         3.733691         0.273161         2.879443
 H         2.061356         0.889224         3.372508
 H         2.006581        -1.807411         3.147354
 H        -0.611098        -0.608694        -0.352541
 H        -0.545742         1.149940         0.258213
 H         0.565384         0.556763        -1.073977
 H         2.150680        -2.179897         0.401137
