19
Iteration:  1566
 C         2.560020         2.289633         0.707537
 C         2.370274         0.893641         1.259790
 C         2.702884         0.410152         2.646790
 C         2.052210        -0.945804         2.431727
 O         0.542234        -0.722715         2.118189
 C         1.155061        -0.029005         0.908460
 C         0.080530         0.304950        -0.113881
 C         2.229482        -1.057884         0.890925
 O         3.229105        -0.133969         0.377234
 H         1.704282         2.882523         0.495506
 H         3.033297         2.848112         1.435595
 H         3.115296         2.267501        -0.217061
 H         3.716545         0.334532         2.815464
 H         2.177258         1.111054         3.400996
 H         2.231028        -1.618623         3.235044
 H        -0.849540         0.052951         0.331714
 H         0.215396         1.367794        -0.391855
 H         0.109480        -0.427340        -0.883560
 H         1.966669        -2.068255         0.413905
