19
Iteration:  1837
 C         2.457658         2.385850         0.859375
 C         2.375123         0.897027         1.142045
 C         2.652755         0.352696         2.700994
 C         1.918031        -0.985797         2.468446
 O         0.554903        -0.658852         2.042590
 C         1.212927        -0.059507         0.891498
 C         0.119929         0.136554        -0.207554
 C         2.306986        -1.045647         0.844775
 O         3.304152        -0.020534         0.477218
 H         3.305129         2.609156         0.179020
 H         1.591846         2.843636         0.398664
 H         2.457583         2.886280         1.833154
 H         3.699753         0.312114         2.858505
 H         2.176900         1.079939         3.487552
 H         1.982236        -1.909065         3.053761
 H         0.371490        -0.518877        -1.026340
 H        -0.777165        -0.222553         0.353442
 H         0.075109         1.061552        -0.749543
 H         2.420151        -2.007680         0.238999
