19
Iteration:  2589charge 0 multiplicity 1
 C         2.013195         2.418664         1.296535
 C         2.118327         0.928339         1.375602
 C         2.064619         0.398820         2.834723
 C         2.047068        -1.081880         2.256785
 O         0.726700        -1.069120         1.667792
 C         1.280120        -0.194595         0.639624
 C         0.377288         0.041636        -0.588606
 C         2.858177        -0.881112         0.840084
 O         3.425009         0.425488         0.849458
 H         1.316299         2.661700         0.548992
 H         1.786071         2.838690         2.312528
 H         3.001044         2.819667         1.008862
 H         3.010977         0.791899         3.327644
 H         1.178606         0.706485         3.351591
 H         2.136782        -1.907592         2.985662
 H        -0.322800        -0.856316        -0.592855
 H        -0.249818         0.969910        -0.478714
 H         0.903237        -0.083408        -1.575737
 H         3.288725        -1.762721         0.314054
