19
Iteration:  1782
 C         2.561724         2.292167         0.805508
 C         2.283704         0.895168         1.256109
 C         2.592448         0.464048         2.596332
 C         2.006618        -0.940362         2.422423
 O         0.578911        -0.698052         2.121288
 C         1.156514        -0.148146         0.860685
 C         0.133841         0.212152        -0.171111
 C         2.314493        -1.057042         0.863601
 O         3.231221        -0.006041         0.453964
 H         3.549522         2.522822         1.314079
 H         2.523637         2.344763        -0.288361
 H         1.921531         3.058097         1.250828
 H         3.632139         0.299150         2.706816
 H         1.987810         0.931645         3.463551
 H         2.209853        -1.709556         3.149673
 H         0.703500         0.655969        -0.977085
 H        -0.338338        -0.660616        -0.708293
 H        -0.673445         0.650047         0.314900
 H         2.492690        -2.004257         0.307881
