19
Iteration:  2601charge 0 multiplicity 1
 C         2.021840         2.405707         1.262657
 C         2.142752         0.957411         1.412638
 C         2.114661         0.372874         2.813321
 C         2.065335        -1.015131         2.305770
 O         0.784145        -1.091113         1.572138
 C         1.316934        -0.178271         0.631917
 C         0.356169        -0.030138        -0.558564
 C         2.634992        -0.805193         0.850666
 O         3.422532         0.401233         0.900752
 H         1.173553         2.909933         0.818561
 H         1.936839         2.825115         2.316334
 H         2.958459         2.752168         0.850033
 H         3.005412         0.518975         3.482832
 H         1.179003         0.612816         3.378390
 H         2.383018        -1.921283         2.807075
 H        -0.503647        -0.742017        -0.421984
 H         0.018172         0.959026        -0.945324
 H         1.091906        -0.345712        -1.438205
 H         3.198288        -1.578751         0.299927
