19
Iteration:  4368
 C         1.432370         2.449290         1.774747
 C         1.925427         1.006766         1.488639
 C         1.715261         0.093738         2.885949
 C         2.053369        -1.157452         2.087624
 O         0.904922        -1.279710         1.208443
 C         1.584133        -0.283487         0.455043
 C         1.046022        -0.167212        -0.929265
 C         2.957096        -0.540113         0.937798
 O         3.292248         0.859838         1.262618
 H         0.387313         2.494453         2.048743
 H         2.128327         2.977405         2.530410
 H         1.551738         3.049828         0.813686
 H         2.387349         0.483698         3.633845
 H         0.582434         0.133743         2.964301
 H         2.460589        -2.001259         2.701687
 H         1.889269         0.003257        -1.672445
 H         0.555474        -1.176973        -1.049625
 H         0.268835         0.571987        -1.085034
 H         3.653771        -1.188710         0.504039
