19
Iteration:  3615
 C         1.312028         2.337019         1.502040
 C         1.906727         0.995425         1.629233
 C         1.756683         0.108863         2.901330
 C         1.968283        -1.176727         2.160782
 O         0.929231        -1.269069         1.196814
 C         1.569337        -0.175897         0.549993
 C         1.135591        -0.001986        -0.974426
 C         3.032820        -0.542416         0.941151
 O         3.282772         0.719425         1.333388
 H         0.260811         2.203405         1.404574
 H         1.619576         2.958158         2.305890
 H         1.718508         2.915267         0.656359
 H         2.573328         0.530308         3.572492
 H         0.880177         0.170578         3.450301
 H         2.117679        -2.210419         2.590509
 H         0.791588        -0.971963        -1.495348
 H         0.347807         0.758640        -0.988067
 H         1.919977         0.525089        -1.527690
 H         3.784002        -1.172748         0.367817
