19
Iteration:  3167charge 0 multiplicity 1
 C         1.311501         2.366367         1.457369
 C         1.920779         0.975855         1.502930
 C         1.910405         0.190178         2.936964
 C         1.990089        -1.185577         2.258935
 O         0.907577        -1.275062         1.313678
 C         1.543283        -0.222796         0.523611
 C         0.937656         0.085761        -0.867415
 C         2.945785        -0.640157         0.983762
 O         3.424668         0.680502         1.133853
 H         0.262970         2.459009         1.006048
 H         1.296588         2.763296         2.468355
 H         1.910973         2.880456         0.721193
 H         2.757409         0.483924         3.514418
 H         0.959996         0.427870         3.469600
 H         2.281233        -2.216613         2.568663
 H         1.489089         0.819842        -1.360154
 H         0.961796        -0.770671        -1.551802
 H        -0.105202         0.493130        -0.716479
 H         3.743363        -1.223027         0.503852
