19
Iteration:  2206charge 0 multiplicity 1
 C         2.210142         2.375886         0.955951
 C         2.269175         1.006916         1.364929
 C         2.449710         0.373839         2.768082
 C         2.061246        -1.011833         2.314504
 O         0.676456        -0.926058         1.978346
 C         1.111142        -0.184611         0.790837
 C         0.296985         0.199499        -0.483132
 C         2.480406        -0.966283         0.827949
 O         3.302729         0.136169         0.662312
 H         3.231846         2.851909         1.033774
 H         1.785113         2.442826        -0.040711
 H         1.714294         3.043616         1.699483
 H         3.430296         0.367735         3.127715
 H         1.762219         0.871189         3.535140
 H         2.336777        -1.865887         2.919373
 H        -0.421315         0.974631        -0.216458
 H         1.042454         0.562068        -1.198020
 H        -0.158917        -0.699665        -0.675732
 H         2.634805        -1.997284         0.436387
