19
Iteration:  4808charge 0 multiplicity 1
 C         1.291329         2.433122         1.570967
 C         1.812766         0.987073         1.650878
 C         1.708845         0.031995         2.857783
 C         2.253075        -1.263199         2.110167
 O         1.108110        -1.481684         1.122451
 C         1.565726        -0.222621         0.486670
 C         0.902386         0.026904        -0.818607
 C         3.023811        -0.424558         0.906076
 O         3.268819         0.918228         1.314666
 H         0.408188         2.596660         2.247767
 H         2.051049         3.147028         1.793987
 H         0.976223         2.735115         0.587542
 H         2.172814         0.493823         3.706111
 H         0.677069        -0.191759         3.213441
 H         2.763971        -2.073010         2.573138
 H        -0.038035        -0.438455        -0.672169
 H         0.672893         1.053106        -1.131755
 H         1.367868        -0.616415        -1.561439
 H         3.815480        -1.071700         0.416331
