19
Iteration:  2393charge 0 multiplicity 1
 C         2.027923         2.437648         1.090729
 C         2.216196         0.917603         1.299281
 C         2.250892         0.382823         2.740708
 C         2.032403        -1.138548         2.276853
 O         0.660292        -0.948957         1.798391
 C         1.272829        -0.127170         0.721692
 C         0.392597         0.114214        -0.411911
 C         2.636782        -0.921387         0.847209
 O         3.423630         0.256727         0.789684
 H         1.820596         2.788645         2.069959
 H         3.003407         2.879729         0.847794
 H         1.148345         2.684091         0.419782
 H         3.289197         0.573836         3.260429
 H         1.491782         0.664882         3.433005
 H         2.089814        -1.969161         3.022303
 H        -0.638387         0.037699        -0.110386
 H         0.466194         1.147509        -0.821817
 H         0.551590        -0.497457        -1.262070
 H         3.058562        -1.780830         0.293495
