19
Iteration:  4518
 C         1.377237         2.389080         1.598053
 C         1.853501         1.015809         1.591112
 C         1.727965         0.042703         2.831214
 C         2.136948        -1.137670         2.070718
 O         0.989906        -1.330281         1.202308
 C         1.549758        -0.177727         0.496516
 C         0.954664        -0.118381        -0.904135
 C         3.000074        -0.539070         0.936298
 O         3.336973         0.839915         1.367768
 H         0.286932         2.427579         1.704043
 H         1.749462         2.919433         2.535662
 H         1.780695         2.895902         0.705364
 H         2.349018         0.480329         3.594141
 H         0.651484         0.082932         3.238694
 H         2.328629        -2.095292         2.527763
 H        -0.171927        -0.105534        -0.840817
 H         1.224701         0.863940        -1.373371
 H         1.260473        -1.007252        -1.508496
 H         3.699567        -0.868072         0.197254
