19
Iteration:  3154
 C         1.362518         2.327522         1.467277
 C         1.968350         0.934772         1.550323
 C         1.910413         0.182181         2.862706
 C         2.004086        -1.171283         2.242693
 O         0.857396        -1.215676         1.311469
 C         1.545529        -0.188447         0.502311
 C         0.911524         0.045341        -0.870598
 C         2.943368        -0.618253         0.952364
 O         3.427353         0.716759         1.168342
 H         0.456126         2.260615         0.792443
 H         0.966920         2.749476         2.456837
 H         2.052942         3.094880         1.168783
 H         2.794873         0.424536         3.327851
 H         0.998861         0.326892         3.535365
 H         2.249163        -2.057121         2.914180
 H         1.021895         0.993068        -1.277265
 H         1.337994        -0.774066        -1.464207
 H        -0.135495        -0.250088        -0.818282
 H         3.540641        -1.480440         0.537057
