19
Iteration:  1987charge 0 multiplicity 1
 C         2.499462         2.421528         0.951274
 C         2.215272         0.883377         1.264586
 C         2.575102         0.465853         2.696974
 C         2.064695        -1.050332         2.367784
 O         0.577474        -0.793855         2.089524
 C         1.163114        -0.152559         0.823624
 C         0.183602         0.110503        -0.376048
 C         2.345812        -1.039463         0.892295
 O         3.250232         0.117149         0.498770
 H         1.801841         3.158566         0.480709
 H         2.606328         3.000680         1.846109
 H         3.311127         2.400770         0.279561
 H         3.558991         0.563992         3.024674
 H         1.849251         0.782644         3.529031
 H         2.194821        -1.810113         3.149116
 H         0.094848         1.202256        -0.471948
 H         0.675258        -0.298700        -1.271577
 H        -0.742577        -0.439703        -0.392252
 H         2.407217        -1.964756         0.309142
