19
Iteration:  4429charge 0 multiplicity 1
 C         1.320839         2.374025         1.483504
 C         1.879129         0.876656         1.626096
 C         1.798498         0.040496         2.880859
 C         2.112409        -1.208743         2.142441
 O         0.940407        -1.324723         1.259545
 C         1.495169        -0.226699         0.509602
 C         1.088086         0.087221        -0.829250
 C         2.985753        -0.537217         0.961583
 O         3.270753         0.838020         1.214293
 H         0.191978         2.507014         1.601407
 H         1.838832         3.180531         2.013952
 H         1.529103         2.726083         0.493775
 H         2.498836         0.448970         3.618384
 H         0.818396         0.150208         3.364189
 H         2.348284        -2.145541         2.607994
 H         1.602840        -0.625510        -1.455453
 H         0.001589         0.037327        -1.002136
 H         1.495841         1.135424        -1.054513
 H         3.720017        -1.056391         0.272561
