19
Iteration:    20
 C         2.553317         2.292042         0.609708
 C         2.554824         0.832744         1.117805
 C         2.608450         0.322644         2.656950
 C         1.929940        -1.010876         2.357076
 O         0.579669        -0.449322         2.203911
 C         1.156114         0.005045         0.941467
 C        -0.034476         0.285799         0.024155
 C         2.210423        -1.109254         0.811591
 O         3.381496        -0.207965         0.432622
 H         1.746230         2.819918         1.266582
 H         3.484509         2.903357         0.859167
 H         2.321983         2.312704        -0.543693
 H         3.691318         0.360727         3.159792
 H         1.970911         0.927382         3.319854
 H         2.036386        -1.806188         3.036718
 H        -0.381708        -0.643703        -0.285790
 H        -0.892928         0.758931         0.574948
 H         0.270131         0.893372        -0.731268
 H         2.207717        -1.991674         0.272824
