19
Iteration:  3647charge 0 multiplicity 1
 C         1.261034         2.219963         1.326467
 C         1.876954         0.962212         1.572320
 C         1.721215         0.122911         2.893114
 C         2.077513        -1.227282         2.169938
 O         0.896182        -1.308769         1.287939
 C         1.496189        -0.196720         0.613243
 C         1.214383         0.305120        -0.832633
 C         2.962438        -0.613980         0.991824
 O         3.338983         0.702510         1.212466
 H         0.208565         2.224254         1.086404
 H         1.268086         2.828220         2.211092
 H         1.776778         2.742283         0.474486
 H         2.611401         0.562377         3.519408
 H         0.791086         0.069659         3.308959
 H         2.420028        -2.184667         2.818075
 H         1.269897        -0.462628        -1.692079
 H         0.390682         0.968040        -0.640202
 H         2.092259         0.900893        -1.050237
 H         3.671905        -1.376431         0.485886
