19
Iteration:  1132
 C         2.543453         2.154598         0.632189
 C         2.362275         0.826517         1.235079
 C         2.688939         0.381230         2.670753
 C         2.006484        -1.008027         2.374372
 O         0.626988        -0.561237         2.149388
 C         1.103908         0.034889         0.957441
 C         0.057121         0.359201        -0.040690
 C         2.288051        -1.065922         0.855927
 O         3.248875        -0.121813         0.420225
 H         1.587042         2.680547         0.650997
 H         3.258751         2.852821         1.013217
 H         2.970269         2.027003        -0.389408
 H         3.755784         0.417430         3.053604
 H         1.972367         0.944675         3.420491
 H         2.057248        -1.996684         2.959362
 H        -0.302041        -0.541204        -0.498688
 H        -0.866854         0.701785         0.498584
 H         0.246538         1.118170        -0.884552
 H         2.275808        -2.027501         0.185913
