19
Iteration:  1486
 C         2.588352         2.402052         0.824753
 C         2.489143         0.848491         1.128950
 C         2.674420         0.409986         2.573263
 C         2.064083        -0.951259         2.394675
 O         0.527486        -0.573053         2.125703
 C         1.045463        -0.193312         0.860051
 C         0.066417         0.252095        -0.130085
 C         2.253242        -1.124384         0.931702
 O         3.222885        -0.160690         0.461223
 H         2.192305         2.889806         1.733450
 H         3.541429         2.850455         0.459772
 H         1.981320         2.667000         0.010663
 H         3.809325         0.555039         2.652491
 H         2.146259         0.941355         3.429796
 H         2.101360        -1.671473         3.249486
 H        -0.811204        -0.458460        -0.006324
 H        -0.413361         1.290724         0.007018
 H         0.433680         0.445871        -1.126474
 H         2.406111        -2.066033         0.537450
