19
Iteration:  2116charge 0 multiplicity 1
 C         2.418699         2.397487         0.955864
 C         2.225079         0.907579         1.289972
 C         2.406970         0.411162         2.727959
 C         2.035304        -1.013707         2.353715
 O         0.597364        -0.817617         1.985300
 C         1.217315        -0.171879         0.814613
 C         0.257637         0.062895        -0.275746
 C         2.442478        -0.947751         0.799204
 O         3.307814         0.175396         0.569596
 H         1.907010         2.983605         1.802346
 H         3.548395         2.581719         0.755374
 H         1.899296         2.774542         0.060915
 H         3.501715         0.440967         2.915523
 H         1.673797         0.674188         3.548552
 H         2.169052        -1.962221         2.907800
 H         0.027568        -0.807421        -0.910192
 H        -0.717989         0.277149         0.154294
 H         0.494934         0.888652        -1.013146
 H         2.542875        -1.884892         0.253926
