19
Iteration:  1683charge 0 multiplicity 1
 C         2.574535         2.278136         0.837947
 C         2.395266         0.861512         1.223082
 C         2.706347         0.456415         2.651859
 C         2.037153        -0.905794         2.456512
 O         0.557107        -0.666415         2.108813
 C         1.086936        -0.116290         0.920330
 C         0.063139         0.172598        -0.168040
 C         2.254488        -1.040278         0.782929
 O         3.221812        -0.087867         0.420647
 H         2.212152         2.962607         1.725378
 H         3.692411         2.515557         0.661039
 H         1.893553         2.471980        -0.009064
 H         3.816010         0.543938         2.807845
 H         2.148953         1.163002         3.376136
 H         2.225064        -1.671303         3.123962
 H        -0.302910         1.278208        -0.178551
 H         0.666726         0.198357        -1.152311
 H        -0.835986        -0.448005        -0.217660
 H         2.171877        -1.990340         0.277165
