19
Iteration:   560charge 0 multiplicity 1
 C         2.503336         2.321699         0.819829
 C         2.457301         0.850221         1.168547
 C         2.717193         0.384299         2.653730
 C         2.048646        -0.973331         2.461172
 O         0.576873        -0.530997         2.247572
 C         1.095919        -0.080737         0.911379
 C         0.108806         0.303149        -0.276192
 C         2.170215        -1.085866         0.858187
 O         3.221304        -0.186954         0.378901
 H         1.842725         2.881140         1.427753
 H         3.546040         2.741572         0.809281
 H         2.161126         2.491372        -0.214018
 H         3.793602         0.377746         2.825836
 H         2.338096         0.989101         3.407395
 H         2.183566        -1.854888         3.177582
 H        -0.705177        -0.454798        -0.240735
 H        -0.330825         1.219544        -0.218672
 H         0.664452         0.089728        -1.246660
 H         2.084544        -2.189755         0.432824
