19
Iteration:  1697charge 0 multiplicity 1
 C         2.506921         2.345301         0.827773
 C         2.449215         0.858780         1.216673
 C         2.655781         0.437110         2.661818
 C         1.961154        -0.938660         2.432189
 O         0.593113        -0.684495         2.143730
 C         1.072878        -0.091426         0.848231
 C         0.054596         0.266037        -0.194236
 C         2.326877        -1.057288         0.915447
 O         3.280627        -0.110402         0.332479
 H         2.437725         3.009749         1.742393
 H         3.499728         2.577349         0.392066
 H         1.718629         2.663021         0.048255
 H         3.618054         0.157959         2.952039
 H         2.278388         1.073031         3.539562
 H         1.981489        -1.781834         3.214645
 H        -0.349869         1.317089        -0.150255
 H         0.378795        -0.233788        -1.173688
 H        -0.882396        -0.320217         0.137396
 H         2.579892        -2.146802         0.517771
