19
Iteration:  4606charge 0 multiplicity 1
 C         1.155433         2.269459         1.438172
 C         1.915077         0.984054         1.623972
 C         1.789523         0.117063         2.909404
 C         2.090894        -1.166094         2.171610
 O         1.010775        -1.379105         1.199567
 C         1.610910        -0.189636         0.492478
 C         0.926341         0.153350        -0.894296
 C         3.066265        -0.550250         0.934500
 O         3.391436         0.779592         1.345950
 H         0.212455         2.263769         1.917148
 H         1.738309         3.052745         1.996534
 H         0.957645         2.663578         0.423645
 H         2.588230         0.298394         3.623680
 H         0.757717        -0.018479         3.336043
 H         2.419534        -2.153274         2.446972
 H         0.958312         1.286490        -1.181368
 H         1.284263        -0.527388        -1.700256
 H        -0.098958        -0.130648        -0.706421
 H         3.690337        -1.115087         0.346033
