19
Iteration:  4705
 C         1.166176         2.383638         1.754706
 C         1.822667         0.997414         1.560966
 C         1.850649         0.072871         2.820484
 C         2.200032        -1.254430         2.077225
 O         0.984448        -1.239048         1.256186
 C         1.511108        -0.221436         0.458590
 C         1.035696        -0.093753        -0.922845
 C         3.069304        -0.531693         0.957812
 O         3.287582         0.850395         1.206839
 H         0.149130         2.495129         1.542730
 H         1.090581         2.836613         2.738933
 H         1.691709         3.067926         1.077631
 H         2.722119         0.333106         3.478218
 H         0.882493         0.100519         3.336388
 H         2.335637        -2.177940         2.718817
 H         1.669683        -0.826990        -1.556797
 H        -0.016724        -0.405067        -0.985059
 H         1.110804         0.971376        -1.198717
 H         3.733072        -0.959880         0.288726
