19
Iteration:   144
 C         2.573551         2.292225         0.771650
 C         2.437121         0.866490         1.166843
 C         2.791861         0.312094         2.679474
 C         1.982686        -0.925977         2.438358
 O         0.535621        -0.460502         2.103811
 C         1.152436        -0.033499         0.871573
 C        -0.028974         0.229274        -0.091507
 C         2.270352        -1.062711         0.852920
 O         3.227344        -0.195794         0.401997
 H         2.020440         2.921285         1.483078
 H         3.681880         2.538308         0.599286
 H         2.034734         2.501532        -0.153470
 H         3.829987         0.222562         2.605906
 H         2.412943         0.853917         3.611515
 H         1.867123        -1.781254         3.215536
 H        -0.549010        -0.710450        -0.200205
 H        -0.625197         0.818112         0.467512
 H         0.236395         0.569656        -1.037978
 H         2.302888        -2.126612         0.380617
