19
Iteration:  1063charge 0 multiplicity 1
 C         2.550603         2.252248         0.856201
 C         2.445500         0.805001         1.148557
 C         2.728438         0.373363         2.716847
 C         1.969193        -0.976627         2.423981
 O         0.651208        -0.424838         2.204524
 C         1.134044        -0.062243         0.865271
 C         0.041645         0.149411        -0.134302
 C         2.239829        -1.038978         0.773654
 O         3.180229        -0.120889         0.360938
 H         1.861511         2.733814         1.566602
 H         3.529060         2.653035         0.973495
 H         2.385458         2.452571        -0.172664
 H         3.762070         0.454909         2.950570
 H         2.051960         1.005224         3.409045
 H         1.911432        -1.818364         3.100889
 H        -0.938542        -0.394871        -0.048182
 H        -0.208051         1.191460        -0.331115
 H         0.394188        -0.104950        -1.093554
 H         2.207729        -2.026953         0.135734
