19
Iteration:   857
 C         2.562674         2.223071         0.680088
 C         2.389050         0.843344         1.183806
 C         2.680648         0.357670         2.607532
 C         2.050692        -0.968852         2.433624
 O         0.627472        -0.546853         2.199162
 C         1.097735        -0.035060         0.988859
 C         0.097395         0.326209        -0.117081
 C         2.239398        -1.110755         0.853069
 O         3.141191        -0.106764         0.416861
 H         1.686349         2.777265         0.409988
 H         3.149693         2.875180         1.254761
 H         3.203791         2.107492        -0.153872
 H         3.642834         0.368632         2.846157
 H         2.054751         0.851099         3.378303
 H         2.222570        -1.782497         3.065045
 H        -0.708580        -0.384653         0.069911
 H        -0.251254         1.341991        -0.079300
 H         0.591260         0.141782        -1.017256
 H         2.262458        -2.028069         0.156561
