19
Iteration:  2075charge 0 multiplicity 1
 C         2.315828         2.344902         0.873881
 C         2.312243         0.943724         1.259430
 C         2.474161         0.406584         2.758052
 C         2.106876        -1.039961         2.344517
 O         0.610764        -0.861833         2.045918
 C         1.130233        -0.197242         0.774470
 C         0.187401         0.279024        -0.349701
 C         2.417714        -0.972596         0.860192
 O         3.343983         0.065581         0.619245
 H         1.241033         2.713900         1.072129
 H         2.855653         2.890961         1.664898
 H         2.753899         2.487770        -0.123874
 H         3.478809         0.542187         2.970231
 H         1.829636         1.031093         3.518140
 H         2.562566        -1.889987         2.922626
 H         0.375149        -0.139383        -1.359450
 H        -0.839659        -0.099217        -0.095965
 H         0.060158         1.344433        -0.340313
 H         2.645935        -1.884307         0.221379
