19
Iteration:  4193
 C         1.571983         2.452662         1.582200
 C         1.813703         1.003730         1.563087
 C         1.659088         0.200597         2.801411
 C         2.041255        -1.182122         2.161879
 O         0.953170        -1.303319         1.185948
 C         1.588173        -0.204599         0.432303
 C         0.984374        -0.042975        -0.911492
 C         2.923494        -0.629930         1.045999
 O         3.321625         0.725035         1.318200
 H         0.773091         2.807946         2.200860
 H         2.525653         2.926395         1.866074
 H         1.416425         2.886432         0.614983
 H         2.381524         0.232135         3.572184
 H         0.628735         0.103334         3.268934
 H         2.258498        -2.049439         2.788133
 H         0.218395        -0.796310        -1.147192
 H         0.445219         0.933343        -0.962817
 H         1.855107        -0.260230        -1.611411
 H         3.698525        -1.255229         0.574315
