19
Iteration:   658charge 0 multiplicity 1
 C         2.681441         2.191776         0.623375
 C         2.300400         0.895049         1.267336
 C         2.628349         0.416437         2.679842
 C         1.992936        -0.928896         2.428776
 O         0.592461        -0.651369         2.119193
 C         1.077500        -0.141647         0.926241
 C         0.029878         0.339790        -0.052003
 C         2.288010        -1.057870         0.843545
 O         3.202193        -0.058713         0.415257
 H         2.176888         3.069049         0.938767
 H         3.792241         2.337106         0.850870
 H         2.466508         2.185470        -0.457518
 H         3.692746         0.243467         2.816176
 H         2.278883         1.014928         3.423966
 H         2.191675        -1.805011         3.142107
 H        -0.518114        -0.513033        -0.469727
 H        -0.558674         1.026816         0.413982
 H         0.665073         0.768808        -0.877024
 H         2.673022        -2.104601         0.404282
