19
Iteration:  1147charge 0 multiplicity 1
 C         2.509507         2.285123         0.571645
 C         2.477389         0.875494         1.195715
 C         2.616445         0.346621         2.706701
 C         2.004479        -1.038817         2.375740
 O         0.660156        -0.533528         2.180993
 C         1.153825        -0.017336         0.879266
 C        -0.014508         0.327987        -0.022651
 C         2.165913        -1.082210         0.744391
 O         3.317034        -0.179440         0.543314
 H         1.565108         2.833724         0.774118
 H         3.365990         2.920572         1.163932
 H         2.698614         2.215681        -0.528760
 H         3.780439         0.366228         2.888918
 H         2.113075         0.799477         3.484404
 H         2.118949        -1.761156         3.108398
 H        -0.270542        -0.589298        -0.651616
 H        -0.835760         0.555767         0.668826
 H         0.341356         1.087121        -0.794935
 H         2.103963        -1.947473         0.232254
