19
Iteration:  2028charge 0 multiplicity 1
 C         2.289071         2.342667         0.924249
 C         2.428708         0.891770         1.257654
 C         2.598544         0.353116         2.785655
 C         1.992684        -0.985148         2.434556
 O         0.528684        -0.733666         2.013247
 C         1.163952        -0.085792         0.800833
 C         0.190063         0.125977        -0.346892
 C         2.412900        -1.058889         0.844885
 O         3.355550         0.119449         0.461996
 H         1.226833         2.728803         0.701303
 H         2.442973         2.983388         1.932471
 H         3.099433         2.616861         0.217406
 H         3.633330         0.584909         3.277083
 H         1.827330         0.812841         3.442961
 H         2.069017        -1.924396         2.958845
 H         0.509906         0.783505        -1.153260
 H        -0.089931        -0.848491        -0.713641
 H        -0.677445         0.508738         0.330255
 H         2.474466        -1.984591         0.324985
