19
Iteration:  1365charge 0 multiplicity 1
 C         2.606612         2.370699         0.803333
 C         2.500092         0.849320         1.165979
 C         2.709430         0.418855         2.574854
 C         1.991181        -0.978435         2.442115
 O         0.603294        -0.563240         2.224878
 C         1.100165         0.013923         0.922468
 C         0.007168         0.179653        -0.172580
 C         2.196938        -1.074361         0.831608
 O         3.203012        -0.213281         0.385711
 H         1.637059         2.788793         1.002136
 H         3.437934         2.887907         1.360681
 H         2.968200         2.462838        -0.181535
 H         3.869082         0.481142         2.953361
 H         2.029582         1.004607         3.295797
 H         2.024484        -1.774271         3.269953
 H        -0.076554        -0.895866        -0.651092
 H        -0.999516         0.390860         0.291081
 H         0.277189         1.095188        -0.830872
 H         2.160478        -1.938325         0.247252
