19
Iteration:  2775charge 0 multiplicity 1
 C         1.939149         2.407009         1.377597
 C         2.029159         0.990685         1.363560
 C         2.017955         0.322351         2.888729
 C         1.998247        -1.069108         2.266707
 O         0.762520        -1.212192         1.569052
 C         1.387254        -0.250040         0.596523
 C         0.591519        -0.023200        -0.679169
 C         2.788655        -0.747003         0.864075
 O         3.368179         0.549077         0.907498
 H         2.983213         2.845477         1.208828
 H         1.181361         2.835137         0.643759
 H         1.649890         2.831962         2.374188
 H         2.782388         0.727150         3.525696
 H         1.010717         0.417891         3.474672
 H         2.513572        -1.846430         2.836430
 H         0.732241        -0.606918        -1.547320
 H        -0.473997        -0.183919        -0.468632
 H         0.765135         1.071002        -0.870540
 H         3.319783        -1.613561         0.393666
