19
Iteration:  1128charge 0 multiplicity 1
 C         2.553803         2.145031         0.657136
 C         2.384121         0.831374         1.231614
 C         2.705438         0.379523         2.663752
 C         2.009507        -0.992952         2.378306
 O         0.597817        -0.575301         2.153619
 C         1.093402         0.014651         0.944185
 C         0.046099         0.372091        -0.051202
 C         2.304208        -1.060534         0.877119
 O         3.218932        -0.109729         0.399845
 H         1.608330         2.706824         0.609468
 H         3.258597         2.878296         1.034796
 H         2.952773         1.910788        -0.308647
 H         3.681237         0.458626         2.995271
 H         2.038446         0.909166         3.362793
 H         2.121412        -1.905281         3.001163
 H        -0.342094        -0.529460        -0.580068
 H        -0.789631         0.713089         0.552570
 H         0.438425         0.988600        -0.804975
 H         2.373475        -2.001954         0.214756
