19
Iteration:  2379
 C         2.020508         2.297674         1.176016
 C         2.263627         0.878462         1.395178
 C         2.325053         0.376881         2.783990
 C         1.990793        -0.988651         2.383771
 O         0.653979        -0.878095         1.749226
 C         1.294819        -0.260181         0.710700
 C         0.335237         0.156671        -0.468051
 C         2.641393        -0.958178         0.800218
 O         3.414685         0.309633         0.699728
 H         1.477356         2.841306         1.944281
 H         2.883007         2.850150         0.904014
 H         1.531643         2.469094         0.217146
 H         3.229858         0.600105         3.331874
 H         1.330456         0.737578         3.216065
 H         2.125406        -1.821756         3.052653
 H        -0.643230        -0.394841        -0.262630
 H         0.316029         1.274868        -0.448854
 H         0.781140        -0.249473        -1.377896
 H         2.993448        -1.806265         0.195237
