19
Iteration:  3492charge 0 multiplicity 1
 C         1.225302         2.221705         1.381639
 C         2.006629         0.950799         1.588102
 C         1.739967         0.079341         2.839764
 C         2.012295        -1.214245         2.159908
 O         0.914716        -1.162995         1.248714
 C         1.553101        -0.127941         0.529239
 C         1.171868         0.174039        -0.971905
 C         2.940241        -0.679936         1.057910
 O         3.406700         0.734271         1.369889
 H         0.151974         1.979073         1.573156
 H         1.397482         2.976064         2.118113
 H         1.244817         2.648663         0.390609
 H         2.441530         0.244924         3.625825
 H         0.688185         0.266692         3.244000
 H         1.970189        -2.109976         2.820218
 H         1.701813        -0.488755        -1.653259
 H         0.137609        -0.269243        -1.028596
 H         1.243331         1.265426        -1.089823
 H         3.681862        -1.051496         0.428206
