19
Iteration:  4671
 C         1.374756         2.375937         1.627406
 C         1.860862         0.975516         1.605150
 C         1.691626         0.098250         2.866342
 C         2.200555        -1.147353         2.104259
 O         1.162430        -1.473039         1.204120
 C         1.492449        -0.304888         0.546636
 C         0.925855         0.059175        -0.921439
 C         2.915076        -0.490274         0.960199
 O         3.234911         0.869616         1.242578
 H         0.465677         2.398103         1.125508
 H         1.558036         2.864862         2.590352
 H         2.008417         2.877779         0.921417
 H         2.397595         0.292484         3.668389
 H         0.625610         0.091347         3.230952
 H         2.680756        -1.850211         2.772225
 H         1.731961         0.101770        -1.759801
 H         0.099898        -0.611949        -1.242907
 H         0.529065         1.067037        -0.915658
 H         3.599510        -0.934392         0.337004
