19
Iteration:  1521charge 0 multiplicity 1
 C         2.592527         2.221306         0.865222
 C         2.322891         0.818360         1.214681
 C         2.692542         0.438597         2.661851
 C         2.089420        -0.948075         2.440291
 O         0.606421        -0.492837         2.181698
 C         1.105774        -0.010715         0.868849
 C         0.051891         0.157270        -0.225056
 C         2.240744        -1.066547         0.797293
 O         3.206784        -0.101620         0.384966
 H         1.848970         2.961551         1.177215
 H         3.521175         2.585721         1.209478
 H         2.519275         2.174161        -0.190345
 H         3.722890         0.462369         2.773332
 H         2.119093         0.709046         3.616910
 H         2.144423        -1.767257         3.079584
 H        -0.867982        -0.248985         0.247721
 H        -0.024595         1.269105        -0.306130
 H         0.215134        -0.478975        -1.066512
 H         2.208278        -2.034524         0.253169
