19
Iteration:  3800
 C         1.265545         2.339510         1.412417
 C         1.893059         0.971748         1.596076
 C         1.792039         0.106352         2.875216
 C         2.035434        -1.174561         2.162114
 O         0.862152        -1.319603         1.275347
 C         1.571482        -0.121546         0.492269
 C         1.187704         0.188726        -0.829294
 C         2.899517        -0.676904         0.948243
 O         3.384615         0.680594         1.270554
 H         0.170166         2.234825         1.543765
 H         1.704373         3.108856         2.066104
 H         1.455534         2.751610         0.394277
 H         2.518798         0.398771         3.648826
 H         0.806740         0.173249         3.308710
 H         2.303912        -2.103859         2.643130
 H         1.088762        -0.665938        -1.499384
 H         0.223272         0.596211        -0.775080
 H         1.929477         0.906732        -1.151864
 H         3.697770        -1.336697         0.541434
