19
Iteration:  4146
 C         1.418738         2.370099         1.297589
 C         1.934582         0.960332         1.569046
 C         1.707515         0.157918         2.913731
 C         2.052255        -1.194456         2.129055
 O         0.915299        -1.283021         1.152119
 C         1.551752        -0.185871         0.545720
 C         0.973567         0.193566        -0.788749
 C         2.988080        -0.654231         1.056572
 O         3.404377         0.620326         1.370138
 H         0.433236         2.566363         1.826217
 H         2.109605         3.194331         1.523137
 H         1.234470         2.524059         0.230205
 H         2.401052         0.718819         3.603453
 H         0.677372         0.119434         3.215508
 H         2.088681        -2.053840         2.778908
 H         0.845229        -0.679102        -1.470868
 H        -0.027915         0.482860        -0.555468
 H         1.615748         0.872413        -1.376312
 H         3.582000        -1.472792         0.534936
