19
Iteration:  2197charge 0 multiplicity 1
 C         2.243466         2.416116         1.005382
 C         2.278416         0.920593         1.322367
 C         2.411597         0.379525         2.819396
 C         2.072354        -0.968378         2.341454
 O         0.666589        -0.864506         2.000570
 C         1.180764        -0.222108         0.783990
 C         0.262787         0.141642        -0.455884
 C         2.411627        -0.966274         0.783133
 O         3.331523         0.146228         0.623192
 H         3.231309         2.809024         1.171438
 H         2.109105         2.486613        -0.058153
 H         1.383673         2.950983         1.528363
 H         3.455120         0.405705         3.161858
 H         1.775388         0.739196         3.590350
 H         2.289528        -1.865990         2.896123
 H        -0.619128         0.721633        -0.221653
 H         0.942861         0.801631        -1.039969
 H        -0.022619        -0.654296        -1.127173
 H         2.723944        -1.880253         0.264469
