19
Iteration:  3046
 C         1.547467         2.331315         1.381540
 C         2.087622         0.930746         1.580392
 C         1.842309         0.270744         2.876106
 C         2.107498        -1.131015         2.182475
 O         0.842975        -1.174230         1.343119
 C         1.451236        -0.203344         0.572669
 C         0.760819         0.003692        -0.763649
 C         2.910388        -0.651786         0.859588
 O         3.398229         0.630645         1.194339
 H         2.384793         3.007286         1.165574
 H         0.898671         2.323975         0.508306
 H         0.966743         2.733257         2.175258
 H         2.601225         0.619496         3.483995
 H         0.878538         0.162492         3.460224
 H         2.304661        -2.013316         2.826404
 H         0.179800        -0.852638        -0.959196
 H         0.037624         0.850644        -0.808186
 H         1.521628         0.061697        -1.604765
 H         3.467992        -1.355122         0.224061
