19
Iteration:  1342
 C         2.586170         2.236811         0.674478
 C         2.382595         0.835823         1.216989
 C         2.702340         0.365765         2.708208
 C         2.063451        -0.942029         2.371578
 O         0.598713        -0.559906         2.196449
 C         1.062048        -0.042718         0.940889
 C         0.084602         0.223569        -0.132357
 C         2.176219        -1.043861         0.827305
 O         3.186239        -0.072783         0.444861
 H         1.646866         2.748295         0.624392
 H         3.301598         2.824788         1.255350
 H         3.074262         2.121034        -0.295264
 H         3.876397         0.157236         2.600859
 H         2.468971         1.022431         3.522918
 H         2.244855        -1.846856         2.933186
 H        -0.341867        -0.771719        -0.523651
 H        -0.734880         0.845091         0.227357
 H         0.690027         0.862764        -0.868494
 H         2.086049        -2.000048         0.324044
