19
Iteration:  2871
 C         1.722302         2.398724         1.334304
 C         2.030031         0.961975         1.466043
 C         2.020487         0.329871         2.830139
 C         2.084739        -1.122962         2.273986
 O         0.729106        -1.274637         1.507858
 C         1.421175        -0.192143         0.548426
 C         0.726075         0.130174        -0.666547
 C         2.809507        -0.805340         0.963100
 O         3.381649         0.552546         0.968693
 H         0.886899         2.431920         0.658459
 H         1.299944         2.845472         2.235598
 H         2.452052         3.002971         0.873281
 H         2.894691         0.723712         3.288438
 H         1.166142         0.520690         3.487552
 H         2.273415        -2.050787         2.836603
 H        -0.260375         0.580300        -0.469699
 H         1.291781         0.891665        -1.230223
 H         0.745669        -0.791912        -1.244229
 H         3.287354        -1.569512         0.283782
