19
Iteration:   767charge 0 multiplicity 1
 C         2.643576         2.296468         0.762822
 C         2.423186         0.865476         1.153066
 C         2.632211         0.465696         2.618016
 C         2.018824        -0.957269         2.383125
 O         0.667783        -0.641266         2.248382
 C         1.024843        -0.034993         0.957544
 C         0.192646         0.239845        -0.163894
 C         2.146175        -1.068715         0.888163
 O         3.115057        -0.138793         0.412249
 H         2.437461         2.949972         1.534541
 H         3.660306         2.483870         0.263063
 H         1.967926         2.505442        -0.094354
 H         3.715325         0.334543         2.885563
 H         2.096468         0.964388         3.344913
 H         2.226637        -1.811667         3.149965
 H        -0.573732        -0.591590        -0.321514
 H        -0.417979         1.084842        -0.264060
 H         0.820686         0.364294        -1.125962
 H         2.126269        -2.045045         0.220111
