19
Iteration:  2781
 C         1.902981         2.489526         1.393266
 C         2.025015         0.975541         1.381202
 C         2.046775         0.302829         2.857794
 C         2.062864        -1.038169         2.235679
 O         0.732857        -1.204329         1.574494
 C         1.398613        -0.303966         0.597261
 C         0.607660        -0.005143        -0.701825
 C         2.778605        -0.769011         0.908033
 O         3.345587         0.527598         0.910834
 H         2.822687         2.929703         1.098313
 H         1.197958         2.923478         0.720776
 H         1.832979         2.795836         2.437644
 H         2.827510         0.623062         3.602536
 H         1.084819         0.329085         3.278763
 H         2.267731        -1.855067         2.969896
 H         0.602438        -0.767628        -1.570241
 H        -0.460503        -0.021038        -0.404845
 H         0.856460         0.986693        -1.038253
 H         3.420687        -1.499410         0.415614
