19
Iteration:   939charge 0 multiplicity 1
 C         2.615370         2.258329         0.655755
 C         2.473787         0.844824         1.202714
 C         2.754217         0.315365         2.680413
 C         1.935141        -0.990305         2.407582
 O         0.601898        -0.434888         2.118422
 C         1.124456         0.019369         0.910837
 C        -0.087532         0.195036        -0.033914
 C         2.243250        -1.113488         0.833408
 O         3.263571        -0.122526         0.479746
 H         1.716083         2.924708         0.955455
 H         3.550230         2.854694         1.018273
 H         2.367255         2.232532        -0.458979
 H         3.917390         0.313245         2.802413
 H         2.265639         0.721638         3.524970
 H         1.989479        -1.924237         3.073387
 H        -0.205757        -0.605370        -0.765473
 H        -1.053964         0.448349         0.420715
 H         0.065467         0.969483        -0.870164
 H         2.407306        -1.924852         0.192566
