19
Iteration:  2635charge 0 multiplicity 1
 C         1.975827         2.549787         1.242609
 C         2.129830         0.978088         1.467567
 C         2.184968         0.246037         2.858733
 C         2.010909        -1.175955         2.268169
 O         0.675047        -1.070726         1.687514
 C         1.293588        -0.226591         0.621731
 C         0.507086        -0.039439        -0.615934
 C         2.731600        -0.779552         0.829498
 O         3.353618         0.517631         0.849411
 H         0.956517         3.026959         1.170713
 H         2.689941         3.042099         1.956865
 H         2.500030         2.822115         0.334292
 H         3.122745         0.353226         3.426392
 H         1.264791         0.435964         3.542294
 H         2.237273        -2.097485         2.783607
 H        -0.585946         0.100556        -0.611660
 H         1.038332         0.724770        -1.224370
 H         0.557211        -1.183507        -1.005534
 H         3.327465        -1.560057         0.307105
