19
Iteration:  2044charge 0 multiplicity 1
 C         2.239492         2.377890         0.931107
 C         2.346809         0.928345         1.290516
 C         2.498358         0.331006         2.762257
 C         1.980347        -1.031519         2.349848
 O         0.622120        -0.659816         1.956558
 C         1.243169        -0.146150         0.782582
 C         0.191046         0.164528        -0.201412
 C         2.460343        -1.013988         0.829552
 O         3.348777         0.037159         0.534256
 H         1.239289         2.416463         0.553715
 H         2.518643         2.997233         1.707880
 H         2.857000         2.630794         0.068694
 H         3.530164         0.236240         2.948544
 H         1.915352         0.926621         3.506824
 H         2.096908        -1.850985         3.087642
 H         0.519683         0.405081        -1.233573
 H        -0.479820        -0.725750        -0.360107
 H        -0.424565         0.995804         0.011961
 H         2.754139        -1.950702         0.261182
