19
Iteration:   765
 C         2.638633         2.296365         0.766180
 C         2.412049         0.866759         1.147969
 C         2.651688         0.463495         2.622652
 C         2.020319        -0.966410         2.371190
 O         0.661250        -0.634655         2.243682
 C         1.036420        -0.038513         0.958921
 C         0.199206         0.224790        -0.165425
 C         2.130980        -1.075249         0.889847
 O         3.108160        -0.133537         0.423994
 H         2.487833         3.029156         1.530737
 H         3.620301         2.489650         0.227110
 H         1.986436         2.504468        -0.107015
 H         3.805117         0.284263         2.907157
 H         2.104770         1.022643         3.368331
 H         2.202800        -1.785690         3.122106
 H        -0.502000        -0.632377        -0.340162
 H        -0.484236         1.121634        -0.252401
 H         0.863280         0.381727        -1.121960
 H         2.094906        -1.944474         0.236003
