19
Iteration:  3165
 C         1.297818         2.359536         1.459070
 C         1.938166         0.958318         1.500926
 C         1.922304         0.177357         2.929911
 C         1.967879        -1.189327         2.276952
 O         0.909972        -1.267110         1.315193
 C         1.541269        -0.216618         0.511025
 C         0.932306         0.090166        -0.873690
 C         2.933660        -0.619452         0.989807
 O         3.436395         0.677524         1.132905
 H         0.285914         2.457082         0.951724
 H         1.305590         2.800498         2.479594
 H         1.972935         2.923887         0.810141
 H         2.709976         0.544405         3.465280
 H         0.967772         0.436813         3.508891
 H         2.337742        -2.201049         2.532214
 H         1.406692         0.854062        -1.382305
 H         1.025334        -0.794278        -1.513993
 H        -0.122580         0.363603        -0.730482
 H         3.755639        -1.231775         0.519287
