19
Iteration:  4879charge 0 multiplicity 1
 C         1.124417         2.361362         1.687154
 C         1.786711         1.015468         1.515208
 C         1.849706        -0.008623         2.876591
 C         2.281571        -1.205486         2.106825
 O         0.987750        -1.459106         1.321299
 C         1.557631        -0.262965         0.522604
 C         1.157693         0.063170        -0.831224
 C         2.947134        -0.493971         0.896291
 O         3.222250         0.915003         1.092897
 H         0.074423         2.394337         1.445822
 H         1.154593         2.923234         2.690498
 H         1.559584         3.248336         1.098594
 H         2.680426         0.293116         3.599570
 H         0.945211         0.033395         3.447764
 H         2.601679        -2.226409         2.454230
 H         0.460237         0.928979        -0.757523
 H         1.951978         0.498864        -1.428727
 H         0.608264        -0.749381        -1.364851
 H         3.730070        -0.828519         0.238019
