19
Iteration:  2593
 C         2.016941         2.406421         1.295280
 C         2.115940         0.946430         1.385451
 C         2.077894         0.400250         2.845529
 C         2.050329        -1.052116         2.267575
 O         0.753689        -1.074018         1.633584
 C         1.281301        -0.183972         0.654201
 C         0.355788         0.028015        -0.582555
 C         2.811340        -0.880952         0.838409
 O         3.429783         0.421415         0.864752
 H         1.259525         2.746321         0.498303
 H         1.877808         2.611461         2.373274
 H         2.972708         2.745769         0.920702
 H         2.992566         0.679702         3.341439
 H         1.100981         0.779169         3.360226
 H         2.241136        -1.911235         2.901474
 H        -0.330975        -0.799971        -0.523895
 H        -0.215329         0.956840        -0.692341
 H         0.981817        -0.175087        -1.559918
 H         3.251695        -1.719849         0.297431
