19
Iteration:  4545charge 0 multiplicity 1
 C         1.359351         2.454864         1.677082
 C         1.757033         1.003124         1.656575
 C         1.843689         0.060971         2.882567
 C         2.151286        -1.177046         2.115829
 O         0.996186        -1.386319         1.217235
 C         1.467513        -0.211410         0.527943
 C         1.118836        -0.066763        -1.003761
 C         2.930431        -0.561364         0.948236
 O         3.198738         0.852566         1.194430
 H         0.281327         2.624971         1.908220
 H         1.950899         2.947129         2.453639
 H         1.662540         2.977628         0.759285
 H         2.576297         0.481991         3.604615
 H         0.939346         0.128929         3.418247
 H         2.344515        -2.119965         2.682116
 H         0.419022         0.684477        -1.304761
 H         2.061910         0.303252        -1.351954
 H         0.940598        -1.079894        -1.366686
 H         3.743588        -0.995087         0.291184
