19
Iteration:   744charge 0 multiplicity 1
 C         2.573250         2.305426         0.718589
 C         2.343352         0.906248         1.285378
 C         2.785503         0.319654         2.648927
 C         2.014883        -0.973622         2.477275
 O         0.524523        -0.487303         2.222165
 C         1.041879        -0.054293         0.941071
 C         0.192799         0.151294        -0.216340
 C         2.208042        -1.048439         0.840733
 O         3.183726        -0.105783         0.373231
 H         2.622417         2.956901         1.535424
 H         3.577344         2.258757         0.133622
 H         1.845128         2.642943        -0.040737
 H         3.972203         0.247170         2.560220
 H         2.496305         0.747514         3.556976
 H         2.086904        -1.850234         3.221343
 H        -0.322553        -0.766597        -0.587803
 H        -0.758760         0.726262        -0.117192
 H         0.575004         0.782272        -1.128387
 H         2.216990        -2.087754         0.340925
