19
Iteration:  1405
 C         2.625986         2.195299         0.818271
 C         2.392238         0.788197         1.142904
 C         2.691124         0.455413         2.587292
 C         1.999971        -0.909952         2.466935
 O         0.573700        -0.548974         2.139909
 C         1.081709        -0.040983         0.884528
 C        -0.028181         0.238593        -0.132410
 C         2.316591        -1.093686         0.862426
 O         3.235385        -0.122624         0.471397
 H         2.174250         2.929405         1.496221
 H         3.694407         2.408457         0.859929
 H         2.170333         2.403382        -0.226463
 H         3.775933         0.316923         2.593279
 H         2.356593         1.224311         3.162108
 H         2.130550        -1.654484         3.191891
 H        -0.174483        -0.395475        -0.955181
 H        -0.949295         0.298961         0.366702
 H         0.097607         1.131588        -0.754538
 H         2.390987        -2.076699         0.270639
