19
Iteration:  3409charge 0 multiplicity 1
 C         1.542670         2.523264         1.500185
 C         1.773262         1.001488         1.654639
 C         1.600756         0.018748         2.844132
 C         2.113582        -1.177183         2.147759
 O         1.070535        -1.371625         1.107979
 C         1.513631        -0.221717         0.474836
 C         1.083076        -0.033980        -0.882175
 C         2.918641        -0.566305         0.952677
 O         3.240083         0.820384         1.409311
 H         0.903988         2.707548         0.620408
 H         1.047871         2.970773         2.383470
 H         2.535072         3.061048         1.420243
 H         2.061330         0.550935         3.741566
 H         0.577310        -0.111111         2.983620
 H         2.368731        -2.094206         2.710904
 H         0.517392        -1.004170        -1.026667
 H         0.437951         0.774306        -1.042698
 H         1.831038         0.006421        -1.624071
 H         3.786241        -1.130285         0.590080
