19
Iteration:  2162
 C         2.295506         2.433048         1.109229
 C         2.341754         0.919705         1.271941
 C         2.444258         0.376904         2.731495
 C         1.955938        -0.963934         2.344058
 O         0.627154        -0.783289         1.906666
 C         1.167538        -0.110473         0.702137
 C         0.226793        -0.011893        -0.300619
 C         2.466149        -1.000408         0.854710
 O         3.369639         0.129403         0.550518
 H         2.612742         3.039150         2.053148
 H         2.900104         2.705522         0.225933
 H         1.310163         2.923981         0.913459
 H         3.459307         0.319066         2.943985
 H         1.777540         0.864011         3.550024
 H         2.224646        -1.784060         3.015422
 H        -0.682141        -0.506048         0.072578
 H        -0.015997         1.070222        -0.461085
 H         0.568877        -0.485901        -1.169492
 H         2.694859        -1.960696         0.317960
