19
Iteration:  4642charge 0 multiplicity 1
 C         1.322799         2.420084         1.384492
 C         1.815487         0.936059         1.540168
 C         1.703594        -0.014350         2.874337
 C         2.200087        -1.216088         2.045221
 O         1.069778        -1.398988         1.196900
 C         1.610241        -0.217418         0.538468
 C         0.884888         0.101003        -0.741384
 C         3.020491        -0.490682         0.955003
 O         3.281237         0.866482         1.389025
 H         0.181428         2.496341         1.343009
 H         1.801900         2.929656         2.231474
 H         1.889838         2.808380         0.463232
 H         2.370425         0.244676         3.756686
 H         0.727022        -0.213854         3.309347
 H         2.640400        -2.113868         2.621843
 H         1.363948         0.579455        -1.598301
 H         0.463646        -0.819273        -1.129621
 H         0.026749         0.754689        -0.492138
 H         3.817726        -0.925999         0.302808
