19
Iteration:   262charge 0 multiplicity 1
 C         2.528382         2.276410         0.869815
 C         2.459538         0.767561         1.155653
 C         2.766167         0.375808         2.604926
 C         1.999354        -0.901640         2.453179
 O         0.558713        -0.382992         2.173581
 C         1.103633        -0.058131         0.864984
 C         0.012549         0.214114        -0.119614
 C         2.214796        -1.122954         0.784998
 O         3.282038        -0.191913         0.379508
 H         1.672076         2.705580         1.373629
 H         3.530705         2.634107         1.026493
 H         2.333157         2.595112        -0.161799
 H         3.845877         0.320069         2.751009
 H         2.221552         0.958152         3.445540
 H         1.978766        -1.745072         3.204758
 H        -0.410483        -0.779991        -0.395646
 H        -0.782775         0.841601         0.530768
 H         0.461064         0.611314        -0.987400
 H         2.254941        -2.115651         0.332057
