19
Iteration:  2374
 C         2.024515         2.317417         1.183468
 C         2.276586         0.835394         1.409595
 C         2.306829         0.444029         2.832594
 C         1.990301        -1.013309         2.390501
 O         0.646040        -0.876435         1.771674
 C         1.324450        -0.284834         0.667458
 C         0.326618         0.165218        -0.482141
 C         2.628921        -0.935543         0.789822
 O         3.401976         0.298128         0.659324
 H         1.356437         2.877566         1.888786
 H         2.961781         2.981132         1.044159
 H         1.624324         2.355099         0.139960
 H         3.290424         0.461448         3.369340
 H         1.434023         0.745557         3.411123
 H         2.145045        -1.888663         3.053818
 H        -0.523877        -0.463952        -0.347779
 H         0.139312         1.228254        -0.444099
 H         0.829209        -0.116794        -1.458471
 H         3.015301        -1.828782         0.287179
