19
Iteration:  3217charge 0 multiplicity 1
 C         1.489070         2.453952         1.380703
 C         1.841573         0.982186         1.682915
 C         1.729176         0.103608         2.954992
 C         2.073023        -1.168543         2.193000
 O         1.001415        -1.385847         1.276845
 C         1.489368        -0.275537         0.526123
 C         0.948080         0.083253        -0.920013
 C         2.942508        -0.595397         0.944184
 O         3.336312         0.790988         1.203539
 H         0.923865         2.922360         2.158647
 H         2.428308         3.054379         1.485675
 H         0.982671         2.488113         0.426808
 H         2.447059         0.626749         3.605954
 H         0.752395        -0.183991         3.472184
 H         2.317397        -2.001246         2.852415
 H         1.710458        -0.248381        -1.717616
 H         0.087514        -0.614804        -1.116390
 H         0.643649         1.115901        -1.066660
 H         3.734371        -1.202657         0.409331
