19
Iteration:  4158charge 0 multiplicity 1
 C         1.442913         2.364273         1.346398
 C         1.943964         0.968155         1.617145
 C         1.657795         0.154454         2.784763
 C         1.955662        -1.160733         2.183770
 O         0.929485        -1.239472         1.215007
 C         1.665268        -0.227614         0.452067
 C         0.902208         0.113233        -0.820121
 C         2.983211        -0.682262         1.034206
 O         3.462941         0.688086         1.390274
 H         0.555508         2.473396         2.034816
 H         2.154806         3.156017         1.627104
 H         1.083493         2.385172         0.353788
 H         2.231551         0.247351         3.747599
 H         0.592256         0.165865         3.062120
 H         2.187806        -2.060837         2.666431
 H         0.535095        -0.837932        -1.240165
 H         0.114728         0.834896        -0.624387
 H         1.472120         0.776868        -1.559232
 H         3.776603        -1.230762         0.410108
