19
Iteration:  4328charge 0 multiplicity 1
 C         1.509687         2.400281         1.399318
 C         1.867448         0.974744         1.640436
 C         1.697892         0.109878         2.914595
 C         2.130088        -1.162646         2.196893
 O         0.965980        -1.431042         1.206641
 C         1.506728        -0.235485         0.479780
 C         0.998529         0.088488        -0.905919
 C         2.949149        -0.560748         0.945720
 O         3.254568         0.805085         1.348488
 H         0.468626         2.627045         1.459322
 H         1.947569         3.014087         2.129965
 H         1.811792         2.649703         0.367163
 H         2.422763         0.199427         3.763135
 H         0.735960         0.043322         3.340519
 H         2.515551        -2.188147         2.438182
 H         1.219511         1.189665        -1.069823
 H         1.306772        -0.523099        -1.758936
 H        -0.073219         0.169780        -0.706443
 H         3.784024        -1.101013         0.446135
