19
Iteration:  3212
 C         1.475516         2.426399         1.353071
 C         1.831412         0.935525         1.677927
 C         1.711196         0.133419         2.959641
 C         2.094489        -1.213366         2.152248
 O         0.996440        -1.379036         1.331785
 C         1.457031        -0.233759         0.537321
 C         0.960648         0.105676        -0.918418
 C         2.971501        -0.591677         0.949309
 O         3.358286         0.790691         1.178290
 H         0.741849         2.841590         2.117157
 H         2.403634         2.925227         1.634949
 H         1.046376         2.659849         0.335504
 H         2.406495         0.617039         3.741283
 H         0.780267        -0.112079         3.405204
 H         2.311705        -1.983330         2.911086
 H         1.768753        -0.153948        -1.619829
 H         0.207249        -0.611841        -1.214903
 H         0.651068         1.167724        -1.004633
 H         3.571568        -1.243347         0.338608
