19
Iteration:  2239charge 0 multiplicity 1
 C         2.176570         2.407378         0.949599
 C         2.267294         0.917357         1.380641
 C         2.348181         0.336994         2.794599
 C         1.977148        -1.027581         2.368918
 O         0.660979        -0.843700         1.884937
 C         1.208241        -0.236465         0.757462
 C         0.345901         0.126415        -0.321441
 C         2.569051        -0.951517         0.790147
 O         3.355266         0.229865         0.602434
 H         3.016008         2.608759         0.256897
 H         1.287179         2.780134         0.455356
 H         2.224920         3.014346         1.897755
 H         3.335718         0.256609         3.182742
 H         1.635651         0.825072         3.501343
 H         2.169266        -1.858507         3.025253
 H         0.340893         1.198757        -0.492238
 H         0.395521        -0.431821        -1.243393
 H        -0.609083        -0.078655         0.004296
 H         2.811394        -1.926676         0.311655
