19
Iteration:   463
 C         2.617839         2.302584         0.782632
 C         2.458769         0.830337         1.106186
 C         2.564978         0.416070         2.603300
 C         1.950080        -0.990627         2.425510
 O         0.643510        -0.502305         2.177703
 C         1.138164        -0.030029         0.889345
 C         0.022850         0.250379        -0.046848
 C         2.227040        -1.129080         0.861470
 O         3.268704        -0.177624         0.390778
 H         1.869558         2.803886         1.250691
 H         3.585178         2.726370         1.071892
 H         2.622306         2.577613        -0.278555
 H         3.583420         0.531141         2.985355
 H         2.015920         1.079086         3.219725
 H         2.030313        -1.909795         3.102509
 H        -0.340823        -0.783394        -0.386420
 H        -0.769300         0.713590         0.477739
 H         0.407721         0.904670        -0.947896
 H         2.213848        -2.124203         0.288838
