19
Iteration:   364charge 0 multiplicity 1
 C         2.537461         2.320413         0.768362
 C         2.371882         0.819944         1.079783
 C         2.686292         0.401884         2.539259
 C         1.976277        -0.905241         2.429354
 O         0.572395        -0.565514         2.128810
 C         1.118521        -0.112106         0.838723
 C         0.007039         0.362460        -0.075666
 C         2.292291        -1.155864         0.897673
 O         3.300782        -0.186057         0.534807
 H         2.034521         2.851990         1.440479
 H         3.501576         2.727729         0.968313
 H         2.220027         2.501118        -0.213110
 H         3.742331         0.121403         2.583532
 H         2.390227         1.018907         3.293238
 H         2.012296        -1.686489         3.147588
 H        -0.731636        -0.366371         0.158516
 H        -0.209614         1.299295         0.299866
 H         0.335786         0.439166        -1.180969
 H         2.422586        -2.225992         0.493492
