19
Iteration:   164charge 0 multiplicity 1
 C         2.597794         2.228264         0.756489
 C         2.496093         0.790990         1.177184
 C         2.657402         0.427912         2.606717
 C         1.994777        -0.952690         2.406936
 O         0.672931        -0.569415         2.207894
 C         1.065556        -0.054768         0.908506
 C         0.008902         0.309294        -0.110741
 C         2.153742        -1.101992         0.801192
 O         3.250870        -0.129053         0.421822
 H         2.012772         2.850753         1.510187
 H         3.701023         2.622868         0.697511
 H         2.099281         2.467731        -0.230646
 H         3.664636         0.398576         3.086585
 H         1.989236         1.239061         3.149547
 H         2.233685        -1.846546         3.076958
 H        -0.797372        -0.466095        -0.052944
 H        -0.501433         1.367977         0.134421
 H         0.568039         0.321760        -0.992800
 H         2.129334        -2.111557         0.330468
