19
Iteration:  1173
 C         2.559378         2.248184         0.726670
 C         2.452180         0.851890         1.177153
 C         2.716501         0.429337         2.617759
 C         1.974742        -0.952033         2.427732
 O         0.586839        -0.573007         2.111631
 C         1.088349        -0.111468         0.887169
 C        -0.059576         0.366430        -0.094031
 C         2.288169        -1.113688         0.879579
 O         3.286557        -0.143814         0.429599
 H         1.907239         2.859777         1.402424
 H         3.533610         2.614293         1.023520
 H         2.419050         2.428345        -0.346817
 H         3.714988         0.326665         2.695535
 H         2.372121         1.152808         3.440206
 H         1.984416        -1.786461         3.248144
 H        -0.354794        -0.558474        -0.594485
 H        -0.875151         0.569364         0.589663
 H         0.273535         0.969444        -0.871456
 H         2.382358        -2.293604         0.624507
