19
Iteration:   460charge 0 multiplicity 1
 C         2.638285         2.303239         0.770995
 C         2.433034         0.828541         1.109562
 C         2.627951         0.411755         2.652447
 C         1.961158        -1.001673         2.424417
 O         0.636935        -0.498252         2.157443
 C         1.132553        -0.034180         0.912019
 C         0.012846         0.236911        -0.103604
 C         2.220738        -1.135869         0.869438
 O         3.246777        -0.152900         0.392884
 H         1.751210         2.816555         1.300505
 H         3.543546         2.767858         1.178275
 H         2.586403         2.361584        -0.336214
 H         3.687105         0.542212         2.946659
 H         2.036609         1.069324         3.232432
 H         2.011141        -1.815979         3.082202
 H        -0.352283        -0.716298        -0.345727
 H        -0.749133         0.786789         0.487981
 H         0.420414         0.879949        -0.923882
 H         2.177333        -2.142312         0.286839
