19
Iteration:  2317
 C         2.241662         2.416571         1.086481
 C         2.194529         0.908292         1.392560
 C         2.359757         0.349263         2.880219
 C         2.040214        -1.029478         2.340857
 O         0.676468        -0.931038         1.897877
 C         1.183192        -0.135502         0.721397
 C         0.370314         0.029074        -0.539174
 C         2.537848        -0.867812         0.835479
 O         3.279205         0.276187         0.623441
 H         1.358781         2.666637         0.519258
 H         2.255837         2.962583         2.045072
 H         3.135052         2.673239         0.380826
 H         3.354663         0.539477         3.398582
 H         1.602785         0.513221         3.585701
 H         2.238820        -1.944451         2.932230
 H         0.700399        -0.606034        -1.333807
 H        -0.704651        -0.143125        -0.459319
 H         0.449662         0.986432        -0.929663
 H         2.759004        -1.774629         0.247029
