19
Iteration:  1002
 C         2.622491         2.252637         0.778173
 C         2.399995         0.873023         1.164771
 C         2.571146         0.420398         2.651543
 C         2.073800        -0.916396         2.435625
 O         0.618004        -0.619696         2.236374
 C         1.084322        -0.137617         0.871054
 C         0.101837         0.362263        -0.141543
 C         2.277811        -1.138480         0.852495
 O         3.145606        -0.139764         0.341308
 H         2.540291         3.166392         1.452672
 H         3.653744         2.233999         0.386800
 H         1.783351         2.479700         0.049832
 H         3.562048         0.599808         3.027974
 H         1.846849         0.894110         3.341402
 H         2.263343        -1.747554         3.261766
 H        -0.739430        -0.289287        -0.174541
 H        -0.059836         1.440416         0.129911
 H         0.724831         0.339416        -1.107951
 H         2.194319        -2.124348         0.382874
