19
Iteration:  1588
 C         2.548845         2.245842         0.766437
 C         2.394692         0.810599         1.125417
 C         2.606060         0.419393         2.660645
 C         2.033405        -0.984322         2.393780
 O         0.666164        -0.514833         2.212418
 C         1.109095        -0.144983         0.859207
 C        -0.004003         0.357694        -0.103791
 C         2.322329        -1.167115         0.792932
 O         3.242954        -0.117796         0.470802
 H         1.581349         2.612336         0.515268
 H         2.832024         2.860254         1.539056
 H         3.049403         2.361684        -0.182169
 H         3.599047         0.580742         2.901162
 H         1.929054         1.071388         3.305904
 H         2.097497        -1.733442         3.169447
 H        -0.989876         0.325298         0.288255
 H         0.372015         1.373823        -0.281610
 H        -0.160550        -0.227590        -0.979609
 H         2.591441        -2.115459         0.199829
