19
Iteration:  4918
 C         1.113351         2.286746         1.420541
 C         1.879899         0.924536         1.621620
 C         1.875217         0.049744         2.929463
 C         2.214484        -1.201806         2.097853
 O         1.077762        -1.426974         1.261323
 C         1.548161        -0.249429         0.525762
 C         0.938979         0.217647        -0.801605
 C         2.987911        -0.454034         0.863189
 O         3.281972         0.835220         1.291994
 H         0.105893         2.060605         1.003343
 H         0.952542         2.750908         2.399781
 H         1.706226         2.862606         0.764603
 H         2.737609         0.369703         3.503133
 H         0.948848        -0.008983         3.538255
 H         2.736498        -2.092929         2.535272
 H         0.005308         0.727693        -0.484077
 H         1.580564         0.949549        -1.330006
 H         0.702194        -0.566918        -1.504015
 H         3.664016        -1.024509         0.178522
