19
Iteration:  1718
 C         2.469924         2.350107         0.762599
 C         2.348608         0.894478         1.174494
 C         2.647889         0.376147         2.636498
 C         2.020044        -1.026776         2.436997
 O         0.606665        -0.540561         2.081367
 C         1.163103        -0.137588         0.854000
 C         0.083690         0.242989        -0.107749
 C         2.312631        -1.144916         0.825709
 O         3.275180        -0.087160         0.529272
 H         2.562222         2.956961         1.747680
 H         3.293857         2.626132         0.042703
 H         1.521114         2.745725         0.219281
 H         3.684778         0.519406         2.799353
 H         1.995663         0.866798         3.520198
 H         2.103688        -1.906674         3.140942
 H         0.218177         1.386466        -0.193675
 H         0.173897        -0.320881        -1.129738
 H        -0.957645         0.044490         0.309430
 H         2.315956        -2.093845         0.123796
