19
Iteration:  4629
 C         1.349637         2.241908         1.384368
 C         1.857024         0.948356         1.675228
 C         1.738145         0.028611         2.845727
 C         2.159365        -1.233484         2.118819
 O         1.058076        -1.307563         1.117384
 C         1.591407        -0.172952         0.489808
 C         0.835361         0.067377        -0.743382
 C         3.061888        -0.478122         0.975540
 O         3.289421         0.879038         1.369968
 H         0.280969         2.260499         1.470854
 H         1.694896         3.098264         2.014876
 H         1.451932         2.568849         0.312959
 H         2.537192         0.447617         3.495358
 H         0.715944        -0.065932         3.279035
 H         2.377070        -2.280092         2.497114
 H         1.460715         0.894701        -1.268735
 H         0.705318        -0.869625        -1.301664
 H        -0.133245         0.458136        -0.453119
 H         3.828187        -1.029575         0.541296
