19
Iteration:  1042charge 0 multiplicity 1
 C         2.531861         2.381851         0.780376
 C         2.414385         0.865409         1.247080
 C         2.765260         0.240313         2.626913
 C         1.954071        -0.969011         2.375636
 O         0.584754        -0.440383         2.163516
 C         1.121792        -0.023817         0.893559
 C         0.044138         0.154515        -0.170186
 C         2.224352        -1.083117         0.853538
 O         3.275454        -0.105099         0.443596
 H         2.080616         3.062696         1.526089
 H         3.506296         2.604194         0.435671
 H         1.920668         2.374736        -0.117809
 H         3.779235        -0.087510         2.641808
 H         2.404961         0.825993         3.640928
 H         2.034108        -1.756182         3.164753
 H        -0.798118        -0.407150         0.352864
 H        -0.324532         1.175297        -0.426068
 H         0.255570        -0.274819        -1.121720
 H         2.277577        -2.137529         0.249064
