19
Iteration:  4835
 C         1.259219         2.341459         1.692881
 C         1.821633         0.992455         1.607021
 C         1.758224         0.007206         2.851392
 C         2.162541        -1.177244         2.051544
 O         1.068571        -1.294594         1.176784
 C         1.582892        -0.187603         0.406450
 C         0.916498        -0.179124        -0.906256
 C         3.062241        -0.406960         0.904171
 O         3.279528         0.929610         1.349142
 H         0.297004         2.171023         2.178668
 H         1.931193         2.997903         2.372793
 H         1.079997         2.991010         0.788853
 H         2.570053         0.447730         3.504083
 H         0.907839        -0.166620         3.491138
 H         2.660018        -2.099200         2.473721
 H        -0.206286        -0.081923        -0.742995
 H         1.225858         0.608426        -1.589508
 H         1.013528        -1.200399        -1.323284
 H         3.782679        -1.056653         0.477390
