19
Iteration:  2802
 C         1.827673         2.561263         1.418301
 C         2.070992         1.053342         1.459525
 C         2.014311         0.305395         2.832552
 C         2.029582        -1.193439         2.269538
 O         0.771651        -1.139769         1.532270
 C         1.367298        -0.261358         0.625594
 C         0.630545        -0.049701        -0.686455
 C         2.784503        -0.815637         0.823810
 O         3.369610         0.500589         0.938278
 H         2.453794         3.074953         0.702009
 H         0.838179         2.604400         1.013655
 H         1.982811         3.153486         2.321651
 H         2.975961         0.707801         3.288216
 H         1.235969         0.574225         3.522533
 H         2.417516        -2.029859         2.865711
 H         0.224531        -1.037840        -1.137927
 H        -0.295216         0.579008        -0.714616
 H         1.424114         0.421600        -1.282012
 H         3.361138        -1.582561         0.314128
