19
Iteration:  3042
 C         1.550601         2.333011         1.370231
 C         2.042381         0.955519         1.581941
 C         1.889400         0.247214         2.876358
 C         2.091385        -1.109457         2.155463
 O         0.821483        -1.167050         1.351151
 C         1.495197        -0.221263         0.580898
 C         0.790267        -0.010895        -0.745175
 C         2.894448        -0.628117         0.843513
 O         3.397255         0.606672         1.197653
 H         2.404053         2.949428         1.141449
 H         0.885335         2.442822         0.442789
 H         0.779119         2.646754         2.162363
 H         2.641858         0.578352         3.681112
 H         0.984150         0.179979         3.416622
 H         2.199065        -1.933799         2.865812
 H         0.180343        -0.915407        -1.062063
 H         0.049333         0.771655        -0.748568
 H         1.436995         0.251427        -1.523484
 H         3.485836        -1.353446         0.224064
