19
Iteration:  2869
 C         1.700463         2.420452         1.330228
 C         2.019059         0.948202         1.480399
 C         2.022465         0.318135         2.819537
 C         2.095498        -1.129061         2.278720
 O         0.713928        -1.260902         1.515370
 C         1.434878        -0.201264         0.542967
 C         0.736239         0.124998        -0.671948
 C         2.791338        -0.802106         0.959196
 O         3.395491         0.552412         0.970903
 H         0.978991         2.444645         0.593099
 H         1.304293         2.864011         2.223012
 H         2.451676         3.055795         0.884786
 H         2.973144         0.672471         3.308397
 H         1.222287         0.499867         3.455383
 H         2.302361        -2.038163         2.856314
 H        -0.335563         0.492077        -0.410156
 H         1.267543         0.915448        -1.223417
 H         0.782795        -0.721041        -1.301779
 H         3.282573        -1.566962         0.302972
