19
Iteration:  2663
 C         1.847240         2.422389         1.319357
 C         2.107339         0.933208         1.461231
 C         2.164514         0.428702         2.856188
 C         2.072373        -1.100968         2.255651
 O         0.708121        -1.095763         1.679588
 C         1.314632        -0.225355         0.615488
 C         0.632980         0.066347        -0.640295
 C         2.684325        -0.842921         0.787880
 O         3.346201         0.414775         0.861863
 H         1.050614         2.798869         1.920280
 H         2.812871         2.789231         1.673629
 H         1.568275         2.742428         0.260498
 H         3.163918         0.668633         3.301338
 H         1.363791         0.612696         3.499010
 H         2.367446        -1.990681         2.860303
 H         0.002522         0.971195        -0.713959
 H         1.360513         0.026671        -1.457736
 H         0.055869        -0.765760        -0.713448
 H         3.079249        -1.696049         0.179015
