19
Iteration:  4391
 C         1.318920         2.384254         1.837533
 C         1.881968         1.032952         1.561737
 C         1.757271         0.188440         2.887688
 C         2.051693        -1.154464         2.156061
 O         0.936716        -1.236547         1.226274
 C         1.541735        -0.199703         0.499550
 C         1.059489        -0.192176        -1.097070
 C         2.997020        -0.563851         0.927574
 O         3.342772         0.755305         1.214944
 H         0.298090         2.260583         2.095521
 H         1.991892         3.006005         2.480465
 H         1.360102         2.804099         0.775612
 H         2.619165         0.380382         3.524422
 H         0.715540         0.278209         3.284176
 H         2.385294        -1.995066         2.855675
 H         1.903177        -0.285735        -1.867105
 H         0.161831        -0.819655        -1.333711
 H         0.675020         0.802899        -1.330673
 H         3.706465        -1.229299         0.514570
