19
Iteration:  3343
 C         1.225614         2.289648         1.418764
 C         1.902537         0.961154         1.561522
 C         1.716864         0.107615         2.866790
 C         2.076329        -1.215243         2.163502
 O         0.925446        -1.312334         1.300093
 C         1.519028        -0.225423         0.543590
 C         1.189829         0.148831        -0.880497
 C         2.918580        -0.580174         0.945117
 O         3.414004         0.819907         1.284524
 H         1.775028         2.848288         0.649071
 H         0.151443         2.118738         1.251895
 H         1.316036         2.974984         2.322381
 H         2.507240         0.316403         3.645653
 H         0.726097         0.061492         3.107753
 H         2.162213        -2.144883         2.764759
 H         0.432423        -0.528672        -1.315523
 H         0.928791         1.165761        -0.884617
 H         2.062300         0.029954        -1.478961
 H         3.510009        -1.354365         0.498783
