19
Iteration:  2430
 C         2.196245         2.367224         1.134874
 C         2.231177         0.983038         1.442655
 C         2.264189         0.367984         2.851331
 C         2.018854        -1.078750         2.317340
 O         0.679672        -1.057637         1.717182
 C         1.179127        -0.206949         0.752995
 C         0.346031         0.011858        -0.531133
 C         2.632099        -0.801918         0.798986
 O         3.323235         0.414848         0.749828
 H         2.559091         3.028657         2.034867
 H         2.841321         2.597828         0.222720
 H         1.255333         2.851331         0.849319
 H         3.225133         0.405586         3.317039
 H         1.393015         0.671651         3.548381
 H         2.201099        -1.952338         2.963533
 H        -0.247892         0.947311        -0.548755
 H         1.044997         0.018915        -1.359100
 H        -0.272996        -0.963885        -0.579839
 H         3.113998        -1.590448         0.213166
