19
Iteration:  3959charge 0 multiplicity 1
 C         1.318340         2.327351         1.483072
 C         1.990898         0.954642         1.553166
 C         1.792949         0.180585         2.891673
 C         1.949645        -1.202877         2.148162
 O         0.851141        -1.209528         1.258912
 C         1.536578        -0.193662         0.479727
 C         1.137116         0.112607        -0.909742
 C         2.972816        -0.674051         0.978305
 O         3.372909         0.701969         1.301097
 H         0.423443         2.282208         2.079163
 H         1.911130         3.152163         1.834665
 H         1.006366         2.442664         0.403807
 H         2.650340         0.486620         3.556302
 H         0.862299         0.142190         3.414738
 H         2.171064        -2.169633         2.685886
 H         1.176381        -0.824077        -1.552837
 H         0.024975         0.236576        -0.703756
 H         1.612350         0.968185        -1.361199
 H         3.782820        -1.205720         0.528587
