19
Iteration:  2004charge 0 multiplicity 1
 C         2.431493         2.427642         0.979737
 C         2.238837         0.952480         1.245024
 C         2.470611         0.425444         2.647991
 C         2.066231        -0.992888         2.387138
 O         0.655564        -0.754682         2.079276
 C         1.079892        -0.162332         0.830543
 C         0.273395         0.108766        -0.349572
 C         2.388051        -1.013236         0.779276
 O         3.210830        -0.000964         0.574296
 H         1.527892         2.916073         0.587130
 H         2.646062         3.083676         1.946149
 H         3.358484         2.536392         0.301382
 H         3.696827         0.425622         2.709519
 H         2.070662         0.848114         3.512417
 H         2.252352        -1.840892         3.025240
 H         0.415138         1.164126        -0.676796
 H         0.540806        -0.582099        -1.188308
 H        -0.779219         0.015993         0.075135
 H         2.588316        -1.992964         0.350290
