19
Iteration:  1619
 C         2.522684         2.318231         0.766199
 C         2.420790         0.859932         1.193143
 C         2.731493         0.420698         2.645392
 C         1.975264        -0.947352         2.382811
 O         0.611296        -0.626888         2.084454
 C         1.132465        -0.003543         0.849711
 C         0.013861         0.245183        -0.062334
 C         2.260570        -1.103321         0.864664
 O         3.246037        -0.193827         0.485369
 H         1.438947         2.632518         0.644944
 H         3.038989         3.028439         1.404796
 H         2.997216         2.529535        -0.175068
 H         3.750318         0.293944         2.637389
 H         2.305278         1.148525         3.404044
 H         1.997959        -1.702582         3.084067
 H        -0.864351         0.438206         0.548731
 H         0.203883         1.275442        -0.520340
 H         0.081669        -0.494057        -0.824997
 H         2.216969        -2.066807         0.344628
