19
Iteration:  3197
 C         1.439169         2.337270         1.401651
 C         1.862943         0.968408         1.501359
 C         1.770791         0.155608         2.864404
 C         2.174884        -1.179528         2.197021
 O         0.906982        -1.356583         1.369017
 C         1.497273        -0.220550         0.586363
 C         1.047057         0.128382        -0.792880
 C         2.881818        -0.588474         0.914588
 O         3.310009         0.735744         1.197085
 H         0.416544         2.532224         1.798195
 H         2.114041         3.019248         1.980394
 H         1.490460         2.528829         0.337383
 H         2.394546         0.514030         3.623117
 H         0.649895         0.184415         3.104653
 H         2.544849        -2.154047         2.564308
 H         1.883980         0.222253        -1.447758
 H         0.360425        -0.622164        -1.219567
 H         0.516165         1.074996        -0.838202
 H         3.653140        -1.140621         0.312458
