19
Iteration:  3827
 C         1.300594         2.203773         1.268507
 C         1.914070         0.919275         1.608638
 C         1.899194         0.086193         2.935778
 C         1.963541        -1.265547         2.242785
 O         0.869741        -1.226918         1.193179
 C         1.609947        -0.116590         0.447957
 C         1.013571         0.222767        -0.841122
 C         2.966753        -0.605493         0.971807
 O         3.396803         0.729703         1.395683
 H         0.290814         1.894248         1.028485
 H         1.334666         3.044506         1.963230
 H         1.785113         2.633081         0.367935
 H         2.646539         0.439859         3.673412
 H         0.883401         0.283257         3.411223
 H         2.032794        -2.297147         2.688395
 H         0.827768        -0.655959        -1.501947
 H         0.029618         0.814619        -0.549149
 H         1.673593         1.025438        -1.292356
 H         3.807820        -1.117383         0.519118
