19
Iteration:  3793
 C         1.326583         2.380076         1.475506
 C         1.857868         0.936777         1.535051
 C         1.789279         0.145714         2.881039
 C         2.023705        -1.251777         2.200648
 O         0.885580        -1.304928         1.287932
 C         1.591515        -0.172641         0.535682
 C         1.203838         0.169866        -0.882311
 C         2.869735        -0.638413         0.943479
 O         3.366950         0.702489         1.240853
 H         0.251808         2.356361         1.700330
 H         1.697062         3.113905         2.211917
 H         1.348149         2.667078         0.463532
 H         2.399800         0.458147         3.676767
 H         0.656736         0.056051         3.096175
 H         2.341725        -2.087281         2.814577
 H         1.166031        -0.645887        -1.593344
 H         0.140973         0.625304        -0.851151
 H         1.960941         0.920337        -1.302485
 H         3.632682        -1.221387         0.393348
