19
Iteration:   233charge 0 multiplicity 1
 C         2.474999         2.338319         0.762582
 C         2.460256         0.832866         1.188548
 C         2.727510         0.329069         2.612394
 C         2.000145        -0.999483         2.362974
 O         0.623369        -0.475231         2.204487
 C         1.118878        -0.009122         0.878710
 C         0.028561         0.278405        -0.082608
 C         2.183260        -1.085705         0.835397
 O         3.293964        -0.208203         0.449204
 H         1.561744         2.888272         1.063211
 H         3.465935         2.897773         0.967011
 H         2.456523         2.297985        -0.341689
 H         3.760200         0.370182         2.841816
 H         2.210302         0.838972         3.411490
 H         2.016819        -1.909696         2.959467
 H        -0.731556        -0.452700         0.045937
 H        -0.405836         1.228841        -0.026703
 H         0.494697         0.153186        -1.106095
 H         2.142550        -2.151875         0.374711
