19
Iteration:  2245charge 0 multiplicity 1
 C         2.195654         2.413129         0.980955
 C         2.263287         0.889918         1.413256
 C         2.361123         0.359416         2.778634
 C         1.991195        -1.031232         2.323490
 O         0.662029        -0.838074         1.896815
 C         1.275184        -0.230344         0.756238
 C         0.276514         0.121204        -0.386736
 C         2.559385        -0.931946         0.837093
 O         3.351817         0.198315         0.597867
 H         2.961494         2.665008         0.217515
 H         1.158370         2.664873         0.614606
 H         2.344519         2.997403         1.866896
 H         3.346897         0.386564         3.327821
 H         1.546299         0.740634         3.475175
 H         2.117850        -1.831713         3.083219
 H         0.346786         1.189304        -0.766770
 H         0.198527        -0.520143        -1.299431
 H        -0.816677         0.072376         0.094781
 H         3.084544        -1.774077         0.372286
