19
Iteration:  4566
 C         1.329159         2.316680         1.647600
 C         1.817414         0.923499         1.600823
 C         1.775809         0.079734         2.941850
 C         2.122566        -1.193405         2.176590
 O         0.930814        -1.386741         1.298162
 C         1.551641        -0.246736         0.470074
 C         1.216381         0.041265        -0.942763
 C         2.894018        -0.508627         0.899278
 O         3.227740         0.919107         1.084037
 H         0.392048         2.176484         2.228185
 H         1.925111         2.841385         2.402602
 H         1.284413         2.894825         0.663047
 H         2.573933         0.502234         3.628307
 H         0.830033         0.241452         3.427780
 H         2.463927        -2.048090         2.813210
 H         0.788250         1.040197        -1.061247
 H         2.078743         0.049477        -1.562917
 H         0.489128        -0.651776        -1.312918
 H         3.732190        -1.070265         0.466887
