19
Iteration:   427charge 0 multiplicity 1
 C         2.596031         2.300365         0.715275
 C         2.351502         0.889271         1.221459
 C         2.822476         0.313579         2.605164
 C         1.936953        -0.984038         2.436001
 O         0.581416        -0.593625         2.259816
 C         1.005742        -0.044754         0.988049
 C         0.148825         0.243279        -0.238851
 C         2.201131        -1.045315         0.858115
 O         3.193184        -0.065785         0.455179
 H         1.568155         2.845891         0.738269
 H         3.455256         2.821157         1.120394
 H         2.706565         2.179973        -0.384006
 H         3.845445         0.002086         2.379706
 H         2.726347         0.958754         3.476803
 H         2.039884        -1.802372         3.064309
 H        -0.597211        -0.502287        -0.477069
 H        -0.401671         1.261351        -0.244284
 H         0.864281         0.240428        -1.114502
 H         2.207160        -2.082833         0.332146
