19
Iteration:  2911
 C         1.787261         2.535987         1.332846
 C         2.041398         1.009416         1.493369
 C         1.891360         0.245316         2.907925
 C         2.093240        -1.182816         2.133788
 O         0.765484        -1.217475         1.494195
 C         1.420152        -0.250802         0.620825
 C         0.696587        -0.013133        -0.749417
 C         2.866592        -0.751876         0.922798
 O         3.367240         0.602491         1.059897
 H         0.697560         2.632428         1.511676
 H         2.473637         3.128966         1.946346
 H         1.933376         2.842641         0.238274
 H         2.720312         0.747748         3.567430
 H         0.985297         0.089537         3.409295
 H         2.389194        -2.073564         2.689580
 H         0.341727         1.088443        -0.821121
 H         1.099399        -0.394714        -1.699206
 H        -0.244935        -0.483992        -0.616550
 H         3.504509        -1.403739         0.303482
