19
Iteration:  3257
 C         1.482317         2.439884         1.579763
 C         1.829985         0.976246         1.495234
 C         1.632694         0.114061         2.798456
 C         2.081063        -1.149098         2.231558
 O         0.976866        -1.317313         1.229034
 C         1.602246        -0.136509         0.422500
 C         0.892090        -0.095371        -0.881718
 C         3.025999        -0.544107         0.952129
 O         3.406374         0.759616         1.328706
 H         1.629895         2.996150         2.519894
 H         1.940028         2.935076         0.701116
 H         0.344229         2.445667         1.417256
 H         2.325607         0.512503         3.655956
 H         0.675650         0.036716         3.224658
 H         2.176840        -2.078028         2.785234
 H         1.118838        -1.094224        -1.406930
 H        -0.164393        -0.198075        -0.664168
 H         1.123918         0.773410        -1.502495
 H         3.734299        -1.219867         0.505952
