19
Iteration:  4549
 C         1.353253         2.410382         1.709436
 C         1.776632         1.005123         1.626305
 C         1.836189         0.066419         2.880265
 C         2.117467        -1.164180         2.150584
 O         1.011342        -1.385008         1.235395
 C         1.455908        -0.222139         0.546739
 C         1.136812        -0.041127        -1.028372
 C         2.939501        -0.554804         0.970478
 O         3.195037         0.869701         1.157899
 H         0.273133         2.645803         1.832104
 H         2.030236         3.000600         2.346242
 H         1.613111         2.883658         0.778384
 H         2.596273         0.380936         3.608059
 H         0.881144        -0.007634         3.540009
 H         2.333964        -2.124051         2.576983
 H         0.441852         0.798837        -1.263478
 H         2.166089         0.250957        -1.461898
 H         0.870333        -1.103590        -1.386989
 H         3.679556        -1.032708         0.208811
