19
Iteration:  2111charge 0 multiplicity 1
 C         2.395046         2.403421         0.934436
 C         2.244084         0.906125         1.313036
 C         2.413142         0.421536         2.729458
 C         2.031558        -1.059478         2.419932
 O         0.575110        -0.833592         1.950964
 C         1.216230        -0.151340         0.835723
 C         0.282750         0.088356        -0.261989
 C         2.468797        -0.954312         0.786945
 O         3.274054         0.161923         0.530362
 H         1.939828         3.057889         1.618425
 H         3.434731         2.523684         0.941964
 H         2.040330         2.817562        -0.026957
 H         3.487497         0.551899         3.048699
 H         1.695214         0.829056         3.410881
 H         2.208510        -1.980643         2.953823
 H         0.202902        -0.785130        -0.931703
 H        -0.665361         0.175570         0.340716
 H         0.506552         0.945026        -0.888113
 H         2.512112        -1.802758         0.079633
