19
Iteration:   740charge 0 multiplicity 1
 C         2.574257         2.272917         0.737096
 C         2.341655         0.895847         1.251740
 C         2.777146         0.299214         2.653583
 C         1.992904        -0.968812         2.466407
 O         0.546761        -0.460724         2.221625
 C         1.044650        -0.073805         0.932109
 C         0.165168         0.166043        -0.232007
 C         2.235647        -1.048272         0.874607
 O         3.191595        -0.102984         0.363172
 H         2.642244         3.087759         1.596607
 H         3.435519         2.350157         0.120419
 H         1.832823         2.557246        -0.018178
 H         3.906425         0.070966         2.535122
 H         2.559382         0.805072         3.718043
 H         2.004524        -1.699219         3.188662
 H        -0.197178        -0.780685        -0.597575
 H        -0.881052         0.702449        -0.061079
 H         0.494356         0.761946        -1.054688
 H         2.373041        -1.912446         0.359503
