19
Iteration:  3637charge 0 multiplicity 1
 C         1.227237         2.315512         1.386310
 C         1.873744         0.912626         1.552960
 C         1.770610         0.050008         2.861876
 C         2.114296        -1.178017         2.185931
 O         0.834793        -1.287194         1.286623
 C         1.561010        -0.204174         0.560412
 C         1.215559         0.235151        -0.826864
 C         2.925727        -0.669625         1.024712
 O         3.372783         0.783610         1.253268
 H         0.240521         2.113485         1.033280
 H         1.340542         3.058063         2.141453
 H         1.789605         2.737243         0.540494
 H         2.437643         0.549071         3.638371
 H         0.826100         0.011601         3.287789
 H         2.369340        -2.236934         2.458653
 H         0.972989        -0.633612        -1.538858
 H         0.409834         0.958031        -1.006281
 H         2.111492         0.793801        -1.149910
 H         3.505653        -1.388914         0.358184
