19
Iteration:  3444
 C         1.400349         2.403349         1.532888
 C         1.847386         0.932478         1.571024
 C         1.732636         0.104628         2.792654
 C         1.996263        -1.194883         2.245181
 O         0.962229        -1.390753         1.208444
 C         1.582534        -0.225923         0.480736
 C         1.129759         0.117141        -0.956359
 C         2.956097        -0.570713         1.008250
 O         3.278143         0.814527         1.319949
 H         0.492512         2.629993         0.910762
 H         1.049353         2.711876         2.583703
 H         2.198625         3.031918         1.055622
 H         2.320649         0.633685         3.591274
 H         0.669620        -0.052807         3.128416
 H         2.162048        -2.172144         2.668622
 H         1.140216        -0.872701        -1.460597
 H         0.145938         0.561744        -1.105579
 H         2.035036         0.679841        -1.247713
 H         3.783416        -1.282860         0.666777
