19
Iteration:    18charge 0 multiplicity 1
 C         2.559178         2.294178         0.608532
 C         2.541558         0.835909         1.109043
 C         2.615436         0.319803         2.655552
 C         1.925347        -0.998106         2.351553
 O         0.580911        -0.455157         2.211939
 C         1.155258         0.005503         0.945030
 C        -0.033929         0.280109         0.030298
 C         2.210450        -1.111459         0.810930
 O         3.381131        -0.199694         0.428494
 H         1.797365         2.787696         1.284526
 H         3.460478         2.895418         0.872015
 H         2.323846         2.327031        -0.508534
 H         3.659255         0.357408         3.168621
 H         1.959115         0.899044         3.331317
 H         2.010460        -1.818576         3.058722
 H        -0.404976        -0.701247        -0.294532
 H        -0.894110         0.813019         0.542025
 H         0.396538         0.919621        -0.784937
 H         2.195743        -2.076119         0.291139
