19
Iteration:  3199
 C         1.442710         2.338267         1.395835
 C         1.838931         0.958029         1.510902
 C         1.756909         0.165322         2.887490
 C         2.180443        -1.195700         2.186281
 O         0.915311        -1.364645         1.375064
 C         1.493779        -0.200300         0.585609
 C         1.037330         0.118657        -0.816248
 C         2.900380        -0.579585         0.922359
 O         3.322917         0.739354         1.191259
 H         0.417365         2.553404         1.850357
 H         2.194221         2.996482         1.873628
 H         1.478966         2.592361         0.332198
 H         2.375872         0.433058         3.688798
 H         0.663972         0.211653         3.105536
 H         2.504083        -2.188499         2.589018
 H         1.865063         0.207833        -1.412246
 H         0.310390        -0.572696        -1.235066
 H         0.542243         1.105565        -0.881681
 H         3.614229        -1.151909         0.304248
