19
Iteration:  1635
 C         2.565798         2.257365         0.772120
 C         2.499646         0.895322         1.227778
 C         2.731887         0.415671         2.651735
 C         1.987267        -0.939177         2.468662
 O         0.589297        -0.607393         2.115397
 C         1.099833        -0.129663         0.931237
 C         0.075747         0.239442        -0.164929
 C         2.186234        -1.064733         0.779852
 O         3.191851        -0.054300         0.423173
 H         1.624558         2.736615         0.857944
 H         3.239557         2.822988         1.449843
 H         2.820592         2.231248        -0.302751
 H         3.842484         0.251162         2.965857
 H         2.270994         0.968346         3.440040
 H         2.157621        -1.751793         3.288110
 H        -0.922158         0.339329         0.303901
 H         0.273378         1.054299        -0.803694
 H        -0.249129        -0.699046        -0.680277
 H         2.254385        -2.016686         0.205117
