19
Iteration:  3837charge 0 multiplicity 1
 C         1.300984         2.250882         1.276449
 C         1.960182         0.913383         1.614734
 C         1.753149         0.048539         2.917299
 C         1.979849        -1.186132         2.154015
 O         0.900957        -1.231599         1.261206
 C         1.681374        -0.171256         0.486116
 C         0.999571         0.229854        -0.835848
 C         3.033915        -0.613378         0.942271
 O         3.360654         0.732100         1.374701
 H         0.267439         2.388977         1.010194
 H         1.457201         2.841296         2.194819
 H         1.980308         2.605257         0.540778
 H         2.561102         0.398036         3.504394
 H         0.741420         0.169013         3.441520
 H         2.041067        -2.170215         2.673398
 H         0.781070        -0.709662        -1.344818
 H        -0.016976         0.631898        -0.431026
 H         1.376247         0.976226        -1.593900
 H         3.708796        -1.357875         0.511348
