19
Iteration:  3528charge 0 multiplicity 1
 C         1.457624         2.480513         1.417347
 C         1.814293         0.977229         1.640777
 C         1.641602         0.098316         2.836654
 C         2.033003        -1.228592         2.194983
 O         0.987115        -1.389450         1.155816
 C         1.533997        -0.265480         0.514824
 C         1.146588         0.080593        -0.888266
 C         2.951762        -0.569570         1.015487
 O         3.273026         0.797544         1.349150
 H         0.648380         2.747925         2.062022
 H         2.284613         2.952073         1.926924
 H         1.318276         2.837242         0.376116
 H         2.571913         0.377245         3.480634
 H         0.743889         0.000709         3.342487
 H         2.063047        -2.236646         2.696001
 H         1.830450        -0.389271        -1.676750
 H         0.106724        -0.160379        -1.049435
 H         1.172648         1.132778        -1.174322
 H         3.731997        -1.226836         0.495133
