19
Iteration:  2073
 C         2.297054         2.346998         0.875571
 C         2.296956         0.939046         1.242961
 C         2.492154         0.414694         2.751388
 C         2.112126        -1.057918         2.335540
 O         0.604953        -0.850084         2.045788
 C         1.143295        -0.185321         0.780847
 C         0.183317         0.270617        -0.338983
 C         2.407413        -0.982127         0.844031
 O         3.356710         0.060215         0.644378
 H         1.184080         2.724755         0.994043
 H         2.904439         2.875225         1.731357
 H         2.784631         2.484750        -0.094683
 H         3.557465         0.566438         2.957775
 H         1.826873         1.018085         3.485849
 H         2.520658        -1.882758         2.972515
 H         0.336485        -0.083563        -1.367977
 H        -0.813791        -0.118978        -0.169006
 H         0.017709         1.391871        -0.351685
 H         2.679522        -1.859880         0.246091
