19
Iteration:  4340
 C         1.508021         2.469245         1.522500
 C         1.804231         0.961347         1.565479
 C         1.724418         0.091189         2.943225
 C         2.082733        -1.201097         2.119756
 O         1.031920        -1.397919         1.186500
 C         1.505410        -0.255068         0.503923
 C         0.966778         0.041404        -0.901162
 C         2.929965        -0.512257         0.940219
 O         3.279799         0.792552         1.343345
 H         0.434695         2.698292         1.604293
 H         2.139022         2.983215         2.190184
 H         1.903423         2.822099         0.561342
 H         2.421070         0.567844         3.690721
 H         0.721904         0.046840         3.235588
 H         2.376140        -2.000590         2.826275
 H         1.604513         0.769002        -1.415362
 H         1.167857        -0.903220        -1.431266
 H        -0.095362         0.194037        -1.124137
 H         3.662886        -1.188241         0.397466
