19
Iteration:   968charge 0 multiplicity 1
 C         2.646568         2.279614         0.670142
 C         2.390813         0.871621         1.220969
 C         2.652690         0.455116         2.582191
 C         2.005434        -0.891632         2.454437
 O         0.590355        -0.695274         2.150328
 C         1.070431        -0.109181         0.905653
 C         0.020332         0.358271        -0.045323
 C         2.243474        -1.100315         0.829979
 O         3.248284        -0.167649         0.460104
 H         2.332889         2.977087         1.479699
 H         3.661622         2.367232         0.358494
 H         2.231494         2.267432        -0.350018
 H         3.669263         0.425110         2.760003
 H         2.073713         0.954097         3.406535
 H         2.251302        -1.697709         3.239941
 H        -0.483230        -0.372497        -0.661686
 H        -0.820428         0.961842         0.405919
 H         0.520371         1.069453        -0.728230
 H         2.352959        -2.076728         0.249591
