19
Iteration:  1103
 C         2.633287         2.375074         0.716606
 C         2.346968         0.874687         1.112146
 C         2.708707         0.441950         2.618456
 C         1.993593        -0.941206         2.496319
 O         0.635449        -0.683662         2.200437
 C         0.996822        -0.187983         0.927661
 C         0.095948         0.366121        -0.134392
 C         2.230358        -1.144360         0.847939
 O         3.185858        -0.160086         0.408748
 H         1.744750         2.983720         0.939012
 H         3.415277         2.951650         1.431487
 H         2.996123         2.578306        -0.334718
 H         3.841591         0.264086         2.798178
 H         2.383853         1.049408         3.363246
 H         2.118573        -1.752022         3.115358
 H        -0.672035        -0.352019        -0.523799
 H        -0.468057         1.070005         0.478678
 H         0.740909         0.694559        -0.998637
 H         2.250762        -1.972844         0.308214
