19
Iteration:  4452charge 0 multiplicity 1
 C         1.353414         2.318001         1.326938
 C         1.859967         0.860215         1.613350
 C         1.715298         0.096173         2.937070
 C         2.201007        -1.207669         2.130095
 O         1.016030        -1.418743         1.233680
 C         1.489646        -0.195459         0.526849
 C         0.964957         0.231338        -0.846993
 C         3.038031        -0.547711         0.981619
 O         3.277672         0.787548         1.292005
 H         0.223677         2.387737         1.444659
 H         1.736016         3.152606         1.972851
 H         1.588716         2.783737         0.376092
 H         2.305659         0.436734         3.792527
 H         0.690982        -0.016314         3.441025
 H         2.544671        -1.954401         2.814277
 H         0.659522        -0.587033        -1.491560
 H         0.119131         0.907386        -0.580388
 H         1.809942         0.880513        -1.209704
 H         3.743123        -1.116582         0.339389
