19
Iteration:  1695charge 0 multiplicity 1
 C         2.514431         2.312130         0.834995
 C         2.450956         0.878041         1.228701
 C         2.664057         0.456810         2.662372
 C         1.965013        -0.931467         2.445273
 O         0.579864        -0.688704         2.133640
 C         1.062907        -0.092792         0.872068
 C         0.045175         0.256412        -0.191304
 C         2.325618        -1.056999         0.891654
 O         3.280662        -0.113256         0.329486
 H         2.380079         2.976363         1.804514
 H         3.533240         2.565781         0.373339
 H         1.783406         2.647112         0.037427
 H         3.690431         0.201973         2.900307
 H         2.253231         1.103393         3.563653
 H         2.038766        -1.745821         3.137703
 H        -0.317323         1.356734        -0.167151
 H         0.416697        -0.210019        -1.194275
 H        -0.839636        -0.391601         0.051508
 H         2.522520        -2.103432         0.493456
