19
Iteration:  4002charge 0 multiplicity 1
 C         1.481758         2.421488         1.313646
 C         1.908927         0.935156         1.616217
 C         1.658495         0.157468         2.895062
 C         2.100327        -1.200673         2.186106
 O         0.980888        -1.429528         1.273134
 C         1.574116        -0.276625         0.542582
 C         1.033665         0.298324        -0.795034
 C         2.894930        -0.619062         0.954193
 O         3.263627         0.684850         1.267124
 H         0.411712         2.449452         1.199931
 H         1.679513         3.079945         2.140414
 H         1.972213         2.665831         0.315425
 H         2.373182         0.367729         3.725429
 H         0.650755         0.379921         3.160086
 H         2.403889        -2.178646         2.723593
 H         0.805733        -0.522729        -1.523764
 H         0.206331         1.042194        -0.737004
 H         1.825833         0.794211        -1.305504
 H         3.516770        -1.322897         0.446781
