19
Iteration:  1398
 C         2.603922         2.190863         0.853427
 C         2.390188         0.805492         1.138541
 C         2.715492         0.435636         2.569941
 C         1.987958        -0.870868         2.394786
 O         0.556426        -0.510552         2.149620
 C         1.085609        -0.091976         0.842326
 C        -0.022388         0.217929        -0.130356
 C         2.312274        -1.118591         0.904940
 O         3.236052        -0.113001         0.437581
 H         2.090031         2.878747         1.520446
 H         3.711750         2.259855         1.049650
 H         2.435784         2.426130        -0.169856
 H         3.907847         0.557125         2.608330
 H         2.295379         1.195814         3.298463
 H         2.031188        -1.649357         3.239578
 H        -0.169817        -0.612347        -0.960190
 H        -0.885062         0.310903         0.593232
 H         0.182973         1.254190        -0.533312
 H         2.406477        -2.030002         0.412218
