19
Iteration:   304
 C         2.726996         2.326435         0.705526
 C         2.299870         0.915130         1.197401
 C         2.667123         0.443887         2.627369
 C         2.080621        -0.983682         2.414106
 O         0.598012        -0.621116         2.222061
 C         1.026728        -0.101652         0.980515
 C         0.166681         0.270019        -0.135649
 C         2.149832        -1.099411         0.824188
 O         3.150573        -0.163382         0.413523
 H         2.190656         3.215820         1.204094
 H         3.798471         2.147729         0.603065
 H         2.515425         2.542768        -0.383239
 H         3.749031         0.595502         2.920928
 H         2.080011         1.052623         3.454893
 H         2.188127        -1.860815         3.130010
 H        -0.115449        -0.570794        -0.840270
 H        -0.911387         0.638441         0.245850
 H         0.602131         0.972730        -0.804647
 H         2.072490        -1.998104         0.285030
