19
Iteration:  2157
 C         2.321984         2.447893         1.103872
 C         2.334948         0.958046         1.279078
 C         2.459236         0.390729         2.777579
 C         1.972623        -0.978921         2.358785
 O         0.613543        -0.784420         1.911478
 C         1.175276        -0.142681         0.708529
 C         0.161001        -0.010878        -0.368161
 C         2.459080        -0.997959         0.824940
 O         3.394888         0.115869         0.561906
 H         2.461412         2.995275         2.008572
 H         2.970921         2.813067         0.281908
 H         1.323427         2.831139         0.884343
 H         3.602223         0.429471         3.020660
 H         1.914127         0.843664         3.565030
 H         2.185416        -1.784617         3.079800
 H        -0.671500        -0.626216         0.008986
 H        -0.086287         1.049576        -0.259098
 H         0.542653        -0.482806        -1.348315
 H         2.587285        -1.927938         0.300464
