19
Iteration:  4812charge 0 multiplicity 1
 C         1.257613         2.471948         1.614742
 C         1.823321         0.969720         1.647770
 C         1.738032         0.053410         2.839445
 C         2.255811        -1.293943         2.092065
 O         1.086275        -1.443130         1.113115
 C         1.543739        -0.216517         0.465187
 C         0.907668        -0.011030        -0.815973
 C         3.054975        -0.444186         0.916146
 O         3.266829         0.922760         1.321599
 H         0.314313         2.601158         2.178400
 H         2.182203         3.145678         1.815113
 H         0.989228         2.664219         0.544932
 H         2.200496         0.430564         3.778347
 H         0.699074        -0.191132         3.109127
 H         2.718568        -2.126965         2.718010
 H        -0.117656        -0.491999        -0.610296
 H         0.771111         0.988977        -1.180505
 H         1.322095        -0.707003        -1.527843
 H         3.889577        -0.894576         0.440036
