19
Iteration:  1956
 C         2.448490         2.422795         0.873838
 C         2.387913         0.898832         1.292704
 C         2.542301         0.441586         2.762613
 C         1.977119        -0.992592         2.360022
 O         0.551514        -0.738033         1.997980
 C         1.164104        -0.113663         0.801898
 C         0.151041         0.084941        -0.210329
 C         2.384210        -1.020798         0.756810
 O         3.325362         0.027388         0.538267
 H         1.580724         2.630271         0.216331
 H         2.435633         3.095254         1.738563
 H         3.360725         2.721724         0.343783
 H         3.483151         0.320894         3.247058
 H         1.742986         0.822744         3.519404
 H         2.092369        -1.813306         3.108543
 H        -0.732172         0.698095         0.165557
 H         0.679496         0.664615        -1.070273
 H        -0.188391        -0.937317        -0.422802
 H         2.425390        -2.048046         0.259208
