19
Iteration:  1814charge 0 multiplicity 1
 C         2.498795         2.390948         0.912135
 C         2.438399         0.992117         1.241554
 C         2.568893         0.421920         2.660795
 C         2.019697        -0.991163         2.335891
 O         0.617485        -0.586446         2.111022
 C         1.132801        -0.166456         0.835417
 C         0.026373         0.131961        -0.233218
 C         2.314327        -1.088392         0.815930
 O         3.284163        -0.122428         0.496222
 H         3.526818         2.637304         0.528707
 H         1.847062         2.692799         0.093274
 H         2.169707         2.954566         1.749236
 H         3.561291         0.465930         3.062751
 H         1.898278         0.953343         3.460271
 H         2.219722        -1.657866         3.142559
 H         0.499345        -0.016551        -1.214753
 H        -0.766630        -0.614357         0.007400
 H        -0.256640         1.150659        -0.374177
 H         2.453739        -2.079557         0.345962
