19
Iteration:   474charge 0 multiplicity 1
 C         2.628547         2.326784         0.779978
 C         2.479041         0.840894         1.101183
 C         2.536598         0.463270         2.554238
 C         1.980787        -0.926898         2.388601
 O         0.571912        -0.540757         2.191033
 C         1.160748        -0.067982         0.864496
 C         0.012244         0.259693         0.027013
 C         2.259819        -1.086861         0.810971
 O         3.308311        -0.254170         0.426483
 H         2.067160         2.843084         1.437564
 H         3.634024         2.499962         1.182015
 H         2.347408         2.567013        -0.254738
 H         3.551536         0.420576         2.935795
 H         1.708239         0.886901         3.087068
 H         2.176517        -1.668967         3.283159
 H        -0.400072        -0.658579        -0.549118
 H        -0.768820         0.692153         0.578246
 H         0.223691         1.009727        -0.895612
 H         2.256063        -2.145326         0.334559
