19
Iteration:    55charge 0 multiplicity 1
 C         2.627886         2.206096         0.627825
 C         2.383196         0.813989         1.143569
 C         2.740728         0.400486         2.653184
 C         2.005317        -0.917882         2.422709
 O         0.592328        -0.570904         2.176824
 C         1.005631        -0.110041         0.891096
 C        -0.044731         0.383612        -0.049638
 C         2.270111        -1.129189         0.877785
 O         3.266149        -0.120142         0.469168
 H         1.828144         2.944283         0.932516
 H         3.634986         2.468570         1.051527
 H         2.704681         2.385264        -0.491450
 H         3.827806         0.206058         2.563157
 H         2.386380         0.957607         3.551656
 H         2.138003        -1.740073         3.144076
 H        -0.219710        -0.243410        -0.886914
 H        -0.956972         0.611309         0.429606
 H         0.270723         1.241800        -0.496719
 H         2.356783        -2.105422         0.412221
