19
Iteration:  1462
 C         2.536564         2.222147         0.717163
 C         2.318327         0.811576         1.218980
 C         2.668977         0.426470         2.679370
 C         1.963384        -0.909435         2.437686
 O         0.660494        -0.629698         2.173611
 C         1.113187        -0.054201         0.898368
 C         0.072615         0.295179        -0.159042
 C         2.276622        -1.085610         0.817650
 O         3.242097        -0.115082         0.445383
 H         2.547834         2.985390         1.497192
 H         3.514749         2.146933         0.155005
 H         1.974522         2.572918        -0.170027
 H         3.834241         0.360710         2.892266
 H         2.179208         0.908380         3.436916
 H         2.026821        -1.668207         3.313922
 H        -0.580247        -0.512704        -0.557593
 H        -0.675532         1.061059         0.116865
 H         0.616355         1.002461        -0.811499
 H         2.290934        -1.981711         0.245098
