19
Iteration:   334charge 0 multiplicity 1
 C         2.629009         2.243775         0.627651
 C         2.466742         0.831111         1.220306
 C         2.656562         0.382426         2.736843
 C         2.016849        -0.977071         2.457934
 O         0.588034        -0.584964         2.160137
 C         1.100261        -0.020838         0.895758
 C        -0.033140         0.304721        -0.129514
 C         2.235960        -1.068101         0.794663
 O         3.258213        -0.100381         0.452120
 H         2.141032         3.099974         1.316776
 H         3.773143         2.387109         0.455341
 H         2.078062         2.201347        -0.356868
 H         3.719207         0.302351         3.112723
 H         1.981744         0.993240         3.335557
 H         2.001881        -1.855461         3.146666
 H        -0.449894        -0.714901        -0.275140
 H        -0.705155         0.897206         0.432183
 H         0.370875         0.742051        -1.094972
 H         2.251833        -2.000733         0.230682
