19
Iteration:  2947
 C         1.711289         2.464946         1.396393
 C         2.018653         0.984804         1.547740
 C         1.933763         0.298570         2.955424
 C         2.017937        -1.150722         2.186847
 O         0.784340        -1.210008         1.391559
 C         1.413282        -0.221445         0.515807
 C         0.696241        -0.121566        -0.752041
 C         2.884053        -0.693376         0.858001
 O         3.428054         0.629841         1.092238
 H         1.337874         2.859486         2.286766
 H         2.602893         3.078303         1.250263
 H         1.102826         2.699643         0.562723
 H         2.852251         0.446633         3.460472
 H         1.044881         0.443654         3.649440
 H         2.113051        -2.116731         2.725386
 H         1.205700         0.567353        -1.459476
 H         0.429197        -1.082783        -1.247391
 H        -0.196043         0.440955        -0.382319
 H         3.589103        -1.347446         0.250586
