19
Iteration:  3789charge 0 multiplicity 1
 C         1.362281         2.387982         1.518023
 C         1.864694         0.939514         1.529472
 C         1.742336         0.159031         2.865502
 C         2.039065        -1.273697         2.210346
 O         0.899452        -1.291150         1.287669
 C         1.555666        -0.243149         0.554410
 C         1.191726         0.170692        -0.925524
 C         2.915044        -0.620007         0.970523
 O         3.339799         0.721776         1.219799
 H         0.293890         2.384076         1.832302
 H         1.812557         3.054428         2.263549
 H         1.347165         2.745283         0.460423
 H         2.354571         0.558316         3.709414
 H         0.716201         0.040392         3.105494
 H         2.252371        -2.105029         2.880262
 H         1.279475        -0.712491        -1.587028
 H         0.270891         0.659149        -0.977425
 H         1.857823         0.894931        -1.369710
 H         3.522990        -1.214573         0.229678
