19
Iteration:  4259
 C         1.345143         2.383953         1.517526
 C         1.954757         0.982033         1.555849
 C         1.770492         0.147080         2.854909
 C         2.043441        -1.219714         2.150883
 O         0.865368        -1.232785         1.240484
 C         1.544622        -0.225843         0.495613
 C         1.036562         0.028291        -0.911837
 C         2.979403        -0.621708         0.987118
 O         3.374704         0.718211         1.281772
 H         0.272434         2.411640         1.457867
 H         1.669514         2.701546         2.523783
 H         1.724301         3.055021         0.755417
 H         2.514285         0.555565         3.526132
 H         0.847374         0.279488         3.513028
 H         2.168901        -2.052226         2.858331
 H        -0.004758         0.443746        -1.029460
 H         1.739410         0.724825        -1.470193
 H         0.961451        -0.916844        -1.510880
 H         3.758976        -1.216746         0.554396
