19
Iteration:  2182charge 0 multiplicity 1
 C         2.296198         2.368761         1.025830
 C         2.256750         0.938913         1.299884
 C         2.461724         0.406394         2.733733
 C         2.038446        -1.114253         2.379284
 O         0.594039        -0.780425         1.948433
 C         1.167095        -0.146307         0.794717
 C         0.284904         0.101156        -0.386764
 C         2.531770        -1.004628         0.802348
 O         3.312064         0.175620         0.569645
 H         2.934748         2.944419         1.775040
 H         2.430315         2.669049        -0.044414
 H         1.367505         2.791543         1.396086
 H         3.407542         0.740450         3.126106
 H         1.605041         0.833814         3.412480
 H         2.097386        -1.912643         3.146231
 H        -0.746866         0.091459         0.046207
 H         0.493872         1.075341        -0.790724
 H         0.366167        -0.834511        -0.958571
 H         2.678208        -1.885593         0.148565
