19
Iteration:  2779charge 0 multiplicity 1
 C         1.910760         2.458215         1.389647
 C         2.022409         0.982230         1.366766
 C         2.046593         0.306295         2.870340
 C         2.035972        -1.042580         2.240074
 O         0.739675        -1.209419         1.573574
 C         1.403168        -0.287064         0.602667
 C         0.604261        -0.014556        -0.696099
 C         2.781614        -0.760732         0.893097
 O         3.352523         0.533774         0.909731
 H         2.904201         2.929412         1.142132
 H         1.209550         2.885872         0.702293
 H         1.802252         2.803004         2.411251
 H         2.807564         0.668416         3.604498
 H         1.018754         0.340549         3.360140
 H         2.364188        -1.831357         2.938916
 H         0.605846        -0.724088        -1.578659
 H        -0.487834        -0.092527        -0.434504
 H         0.847194         1.073393        -0.977198
 H         3.374107        -1.508443         0.432052
