19
Iteration:  1846charge 0 multiplicity 1
 C         2.435089         2.310200         0.844247
 C         2.380594         0.912129         1.212151
 C         2.645856         0.364578         2.738864
 C         1.962734        -1.014762         2.449101
 O         0.596910        -0.650320         2.083764
 C         1.113752        -0.051252         0.783066
 C         0.126506         0.190130        -0.259483
 C         2.386964        -1.057344         0.865819
 O         3.239941         0.011767         0.478576
 H         3.324818         2.523610         0.195370
 H         1.516919         2.699190         0.406402
 H         2.799289         2.760166         1.732345
 H         3.711571         0.212396         2.869645
 H         2.270672         0.975247         3.676120
 H         2.076671        -1.719060         3.241216
 H         0.251976        -0.738793        -0.904644
 H        -0.976749         0.016537         0.058718
 H         0.082300         1.125111        -0.917980
 H         2.501647        -2.040404         0.379140
