19
Iteration:  1422
 C         2.603572         2.344537         0.628711
 C         2.458131         0.917567         1.199799
 C         2.659037         0.378960         2.692164
 C         1.976648        -0.950155         2.447607
 O         0.624684        -0.632389         2.179973
 C         1.073570        -0.091270         0.897637
 C         0.021163         0.286502        -0.154147
 C         2.205091        -1.079236         0.824465
 O         3.254176        -0.172672         0.457990
 H         2.354869         3.084324         1.427070
 H         3.677958         2.506875         0.398944
 H         1.978586         2.509752        -0.215724
 H         3.783628         0.440920         2.948380
 H         2.070023         0.901228         3.613912
 H         2.023304        -1.728613         3.271239
 H         0.096139        -0.628120        -0.867884
 H        -0.979594         0.389883         0.418162
 H         0.364147         1.207444        -0.643499
 H         2.170071        -2.052505         0.347491
