19
Iteration:   851charge 0 multiplicity 1
 C         2.555088         2.237993         0.661356
 C         2.449598         0.856633         1.203541
 C         2.658564         0.351947         2.667101
 C         2.058764        -0.981175         2.405828
 O         0.643514        -0.532697         2.197259
 C         1.060158        -0.003469         0.910460
 C         0.049465         0.317025        -0.099014
 C         2.251333        -1.095400         0.819965
 O         3.160014        -0.141445         0.449488
 H         1.460612         2.597292         0.433122
 H         3.165572         3.022196         1.239368
 H         3.144929         1.971965        -0.291371
 H         3.829965         0.311795         3.078844
 H         2.017902         0.886242         3.382669
 H         2.306600        -1.864811         3.087609
 H        -0.790627        -0.365885         0.096802
 H        -0.209275         1.429710         0.026413
 H         0.556365        -0.043884        -1.078944
 H         2.230971        -1.921690         0.190932
