19
Iteration:  3841
 C         1.333238         2.279505         1.315305
 C         1.934314         0.900446         1.593754
 C         1.692238         0.082801         2.909339
 C         2.003472        -1.189087         2.115436
 O         0.909408        -1.224124         1.252474
 C         1.675707        -0.201718         0.517119
 C         0.986169         0.231301        -0.819634
 C         3.040953        -0.627449         0.962351
 O         3.370755         0.732507         1.359266
 H         0.288467         2.414739         0.989906
 H         1.451646         2.866202         2.218247
 H         1.998812         2.726605         0.481385
 H         2.640507         0.325426         3.588122
 H         0.750592         0.043529         3.397247
 H         2.166364        -2.119949         2.720000
 H         0.720780        -0.749179        -1.373892
 H        -0.046780         0.520334        -0.522256
 H         1.403631         0.882281        -1.563790
 H         3.740750        -1.308728         0.495013
