19
Iteration:  2047charge 0 multiplicity 1
 C         2.238975         2.373673         0.922372
 C         2.326449         0.945291         1.297010
 C         2.485789         0.328171         2.741270
 C         1.966178        -1.024068         2.343122
 O         0.656937        -0.659875         1.945309
 C         1.209173        -0.152424         0.790021
 C         0.190545         0.179012        -0.188650
 C         2.476301        -1.048059         0.822972
 O         3.354694         0.033342         0.561689
 H         1.205153         2.447884         0.639378
 H         2.489823         3.068560         1.752130
 H         2.901420         2.569840         0.047780
 H         3.632344         0.322645         2.902089
 H         1.955906         0.875484         3.441264
 H         2.102656        -1.806226         3.064817
 H         0.597517         0.282978        -1.216786
 H        -0.492341        -0.689758        -0.326357
 H        -0.428194         1.084972        -0.020059
 H         2.704234        -1.912538         0.206217
