19
Iteration:  4119charge 0 multiplicity 1
 C         1.518221         2.345747         1.381724
 C         1.876312         0.928970         1.589638
 C         1.795194         0.111798         2.885607
 C         1.989301        -1.189548         2.157652
 O         0.855876        -1.341488         1.326577
 C         1.492215        -0.285470         0.519087
 C         1.154082         0.200870        -0.885573
 C         2.935930        -0.601288         1.001170
 O         3.277513         0.749826         1.240007
 H         0.457731         2.607981         1.412108
 H         2.009791         3.137429         1.996037
 H         1.804367         2.644851         0.309744
 H         2.579848         0.485312         3.538432
 H         0.823191         0.174979         3.497207
 H         2.075398        -2.070399         2.891743
 H         1.573386        -0.381105        -1.689902
 H         0.014874         0.243189        -0.916209
 H         1.508436         1.261014        -0.963574
 H         3.463567        -1.334326         0.408210
