19
Iteration:  2805charge 0 multiplicity 1
 C         1.822157         2.541873         1.410026
 C         2.071484         1.033465         1.444651
 C         2.039125         0.304121         2.868493
 C         2.007224        -1.161881         2.239205
 O         0.767114        -1.156239         1.538199
 C         1.385475        -0.227128         0.636472
 C         0.635235        -0.067277        -0.685962
 C         2.755283        -0.780721         0.824003
 O         3.389281         0.498355         0.943222
 H         2.313936         3.042579         0.620125
 H         0.791461         2.608966         1.026476
 H         2.020887         3.082118         2.346019
 H         2.981620         0.635838         3.334564
 H         1.224471         0.510749         3.498706
 H         2.349946        -2.012424         2.864585
 H         0.206383        -1.013334        -1.108932
 H        -0.171313         0.672691        -0.725421
 H         1.407780         0.275110        -1.314013
 H         3.359681        -1.547643         0.249871
