19
Iteration:  2951
 C         1.688895         2.483036         1.397601
 C         2.035267         1.027850         1.526961
 C         1.946106         0.272054         2.955030
 C         2.030724        -1.164120         2.175813
 O         0.781008        -1.208748         1.412609
 C         1.424572        -0.250060         0.510689
 C         0.699259        -0.092444        -0.755107
 C         2.881626        -0.723793         0.872859
 O         3.401441         0.631209         1.085985
 H         1.369416         2.833750         2.448365
 H         2.617776         3.037136         1.169358
 H         1.029367         2.771519         0.553099
 H         2.862369         0.429997         3.559670
 H         0.976134         0.516666         3.496640
 H         2.180805        -2.134106         2.646860
 H         1.260057         0.442494        -1.492444
 H         0.448318        -1.088536        -1.159554
 H        -0.159039         0.604025        -0.471326
 H         3.599720        -1.362059         0.400748
