19
Iteration:  2901
 C         1.776292         2.506149         1.339606
 C         1.989148         1.040551         1.526055
 C         1.884783         0.214290         2.862756
 C         2.105061        -1.138426         2.272412
 O         0.768056        -1.219944         1.516026
 C         1.443622        -0.327321         0.544487
 C         0.689011         0.027385        -0.704389
 C         2.846559        -0.719389         0.858023
 O         3.407761         0.573606         0.994678
 H         0.726149         2.665165         1.297838
 H         2.092978         3.196033         2.122630
 H         2.284129         2.724124         0.383084
 H         2.671341         0.641778         3.592366
 H         0.936582         0.248915         3.310029
 H         2.320081        -2.021869         2.890278
 H         0.365871         1.145625        -0.637981
 H         1.362277         0.043507        -1.577305
 H        -0.150366        -0.612422        -0.822474
 H         3.347159        -1.492233         0.220774
