19
Iteration:  3362
 C         1.237665         2.337191         1.481469
 C         1.868868         0.983689         1.574927
 C         1.669862         0.182308         2.858117
 C         2.086030        -1.167699         2.206668
 O         0.938623        -1.290023         1.135931
 C         1.667258        -0.152074         0.495595
 C         1.073528         0.090241        -0.866506
 C         3.057469        -0.647254         1.040647
 O         3.349507         0.675604         1.304888
 H         1.257058         2.773300         0.483442
 H         0.216875         2.225048         1.817928
 H         1.691172         3.026077         2.185267
 H         2.342320         0.572103         3.610036
 H         0.604742         0.057539         3.193795
 H         2.305670        -2.141004         2.679095
 H         0.363253        -0.692914        -0.937122
 H         0.636363         1.099940        -0.989187
 H         1.800044        -0.059450        -1.692779
 H         3.835290        -1.104687         0.442170
