19
Iteration:  3701charge 0 multiplicity 1
 C         1.468937         2.397092         1.537872
 C         1.899512         0.962702         1.546802
 C         1.639713         0.107088         2.862398
 C         2.005809        -1.191733         2.143345
 O         0.948920        -1.250879         1.162979
 C         1.587161        -0.171497         0.488050
 C         0.987198        -0.020310        -0.888482
 C         3.035002        -0.587663         0.943808
 O         3.329113         0.773689         1.399777
 H         0.404969         2.566008         1.741649
 H         1.978943         3.002973         2.291548
 H         1.658057         2.773165         0.479423
 H         2.323238         0.538879         3.668336
 H         0.632907        -0.002269         3.096274
 H         2.323803        -2.134798         2.737749
 H         1.156154        -0.995141        -1.492240
 H        -0.075146        -0.092858        -0.812618
 H         1.476553         0.766016        -1.437247
 H         3.778615        -1.286620         0.456521
