19
Iteration:  3372charge 0 multiplicity 1
 C         1.287498         2.343891         1.540619
 C         1.922418         0.953663         1.540718
 C         1.676406         0.183177         2.854563
 C         2.090876        -1.160193         2.174294
 O         0.970344        -1.275573         1.095365
 C         1.641552        -0.283722         0.437374
 C         1.025759         0.035376        -0.908390
 C         3.015653        -0.568663         1.015895
 O         3.339359         0.763046         1.412073
 H         1.217106         2.680339         0.489646
 H         0.350830         2.332339         2.072529
 H         1.944943         3.083229         1.909299
 H         2.400438         0.348317         3.618763
 H         0.559495         0.190988         3.189971
 H         2.073037        -2.016275         2.862180
 H         0.238968        -0.683688        -0.961829
 H         0.477454         1.027881        -0.848776
 H         1.641913        -0.067152        -1.848676
 H         3.812345        -1.293220         0.870808
