19
Iteration:  3561
 C         1.567301         2.476487         1.651882
 C         1.818537         1.052932         1.636778
 C         1.484770         0.140591         2.765625
 C         2.086404        -1.146934         2.180577
 O         1.040965        -1.407059         1.147875
 C         1.556465        -0.326085         0.474173
 C         1.037912        -0.056537        -0.972579
 C         2.973363        -0.508182         0.951666
 O         3.303160         0.807082         1.342525
 H         0.758198         2.705961         2.322665
 H         2.497510         2.808617         2.137119
 H         1.526074         2.984226         0.685830
 H         1.928107         0.540663         3.752756
 H         0.476218        -0.057643         2.978106
 H         2.278801        -2.027436         2.864842
 H         1.188974        -0.980924        -1.644055
 H        -0.039785        -0.039034        -1.040200
 H         1.482738         0.838843        -1.420677
 H         3.686868        -1.316512         0.594172
