19
Iteration:  3275
 C         1.408185         2.377807         1.543272
 C         1.980190         1.023567         1.633922
 C         1.641235         0.184841         2.876812
 C         2.113187        -1.117946         2.129598
 O         0.986454        -1.278981         1.213212
 C         1.568494        -0.272338         0.496417
 C         0.950677        -0.085317        -0.926972
 C         2.955534        -0.619141         0.967951
 O         3.341674         0.779356         1.277152
 H         1.993335         2.950676         2.315549
 H         1.380132         2.832910         0.560109
 H         0.437202         2.436213         2.015838
 H         2.017572         0.506548         3.810890
 H         0.528940         0.075297         2.928379
 H         2.418693        -2.097197         2.610723
 H         0.801758        -0.987149        -1.423333
 H        -0.017287         0.432364        -0.882770
 H         1.588088         0.536066        -1.587004
 H         3.783971        -1.144126         0.490959
