19
Iteration:  1468charge 0 multiplicity 1
 C         2.549705         2.265360         0.747516
 C         2.321153         0.860313         1.215181
 C         2.708888         0.454568         2.643438
 C         1.986776        -0.923849         2.467215
 O         0.635570        -0.614136         2.165575
 C         1.091162        -0.102256         0.876287
 C         0.027789         0.292115        -0.187185
 C         2.278764        -1.102729         0.821368
 O         3.255093        -0.153325         0.457594
 H         2.520245         3.036641         1.527913
 H         3.554378         2.247299         0.355133
 H         1.841116         2.591279        -0.062131
 H         3.684128         0.251621         2.903654
 H         2.204021         1.083206         3.502592
 H         2.157103        -1.746680         3.088639
 H        -0.611995        -0.472918        -0.580702
 H        -0.508251         1.148704         0.316180
 H         0.619993         0.789212        -0.989715
 H         2.283972        -2.138723         0.304368
