19
Iteration:  2079
 C         2.343975         2.346759         0.877163
 C         2.337925         0.930739         1.300602
 C         2.423772         0.403677         2.761451
 C         2.089788        -1.001334         2.370676
 O         0.629366        -0.884979         2.039013
 C         1.110279        -0.207521         0.770351
 C         0.186470         0.272745        -0.359115
 C         2.442053        -0.971356         0.869189
 O         3.316760         0.083187         0.568066
 H         1.397326         2.695897         1.126158
 H         2.866707         2.991946         1.547517
 H         2.643423         2.520625        -0.165323
 H         3.523913         0.508076         3.062387
 H         1.880059         0.903599         3.490011
 H         2.514615        -1.871421         2.842574
 H         0.478168        -0.210663        -1.300754
 H        -0.818253        -0.051279         0.018803
 H         0.173278         1.368578        -0.352647
 H         2.562289        -1.880495         0.275190
