19
Iteration:   589
 C         2.480005         2.245130         0.947571
 C         2.386743         0.821150         1.059545
 C         2.706488         0.373049         2.534438
 C         1.999833        -0.888166         2.526848
 O         0.606511        -0.439385         2.129368
 C         1.135742        -0.135270         0.845169
 C         0.165120         0.290921        -0.152012
 C         2.269287        -1.177501         0.861276
 O         3.169749        -0.164737         0.399580
 H         1.556542         2.872112         1.274730
 H         3.290482         2.681732         1.509112
 H         2.491470         2.684254        -0.050064
 H         3.838387         0.204877         2.414290
 H         2.499685         1.036033         3.407061
 H         2.012564        -1.494698         3.331298
 H        -0.652227        -0.309683         0.176135
 H        -0.245871         1.399132        -0.174480
 H         0.265564        -0.125848        -1.125278
 H         2.371326        -2.198493         0.633819
