19
Iteration:  1613
 C         2.487744         2.339818         0.769739
 C         2.380508         0.898001         1.138702
 C         2.690787         0.383768         2.632385
 C         1.991551        -0.968445         2.395829
 O         0.598029        -0.592442         2.110752
 C         1.140780        -0.046959         0.883340
 C         0.010500         0.312889        -0.087045
 C         2.257789        -1.086366         0.894706
 O         3.339367        -0.223219         0.458843
 H         1.531370         2.799067         0.547178
 H         2.993682         2.971337         1.537157
 H         3.014316         2.365031        -0.227583
 H         3.857716         0.323143         2.713431
 H         2.253404         0.998592         3.404142
 H         2.087680        -1.881493         3.110354
 H        -0.941920         0.258708         0.499935
 H         0.095096         1.294552        -0.486937
 H        -0.165951        -0.530561        -0.824235
 H         2.332057        -2.106381         0.420517
