19
Iteration:  4897
 C         1.172566         2.247780         1.535632
 C         1.754289         0.826336         1.645022
 C         1.912646         0.099281         2.911471
 C         2.291533        -1.216131         2.125655
 O         1.042318        -1.415640         1.261568
 C         1.502892        -0.251953         0.582981
 C         1.062095         0.246685        -0.820041
 C         2.967730        -0.537930         0.872046
 O         3.175109         0.943452         1.110768
 H         0.146404         2.196406         1.122033
 H         1.008748         2.716438         2.554498
 H         1.832218         2.822945         0.923661
 H         2.639375         0.518697         3.590589
 H         0.960493        -0.168439         3.400564
 H         2.601704        -2.041425         2.824778
 H         0.406779         1.140135        -0.915139
 H         1.990906         0.520527        -1.302158
 H         0.769773        -0.593060        -1.392369
 H         3.782085        -1.083779         0.336269
