19
Iteration:   183charge 0 multiplicity 1
 C         2.630623         2.326399         0.675619
 C         2.297634         0.865022         1.182883
 C         2.598252         0.453130         2.601803
 C         2.112806        -1.017400         2.386169
 O         0.591303        -0.642481         2.246550
 C         1.051100        -0.093436         0.959034
 C         0.145529         0.372462        -0.097036
 C         2.248749        -1.127375         0.864927
 O         3.174997        -0.200771         0.372052
 H         2.131716         3.081316         1.319885
 H         3.655443         2.511615         0.917640
 H         2.505777         2.476720        -0.421375
 H         3.695334         0.637579         2.963436
 H         2.063310         0.740557         3.500321
 H         2.349078        -1.722057         3.143757
 H        -0.888582        -0.071761         0.041312
 H        -0.030743         1.625537        -0.043487
 H         0.574439         0.266808        -1.143329
 H         2.227659        -1.974021         0.284431
