19
Iteration:  1179
 C         2.553347         2.216462         0.781253
 C         2.398963         0.808374         1.137559
 C         2.673255         0.450702         2.659684
 C         1.978028        -0.917405         2.493930
 O         0.606289        -0.591810         2.116750
 C         1.116727        -0.074081         0.835128
 C        -0.030370         0.331121        -0.083368
 C         2.268823        -1.129906         0.877601
 O         3.259004        -0.129523         0.379416
 H         2.037553         2.878079         1.478984
 H         3.705554         2.421027         0.883634
 H         2.510838         2.543442        -0.270943
 H         3.899334         0.344886         2.664244
 H         2.425616         1.084011         3.457516
 H         2.086414        -1.606325         3.251907
 H        -0.365972        -0.611666        -0.604683
 H        -0.904160         0.726957         0.505946
 H         0.402430         1.025277        -0.910826
 H         2.414913        -2.054080         0.520416
