19
Iteration:  4122
 C         1.513343         2.360599         1.331448
 C         1.877196         0.927729         1.602022
 C         1.790397         0.108578         2.883872
 C         1.961335        -1.186844         2.174082
 O         0.868490        -1.340598         1.309774
 C         1.513293        -0.305970         0.537710
 C         1.126543         0.237319        -0.866058
 C         2.934286        -0.625488         0.993411
 O         3.285308         0.751999         1.275623
 H         0.414927         2.517212         1.514871
 H         2.065528         3.079783         1.957323
 H         1.728999         2.672359         0.246258
 H         2.671494         0.452693         3.506173
 H         0.857762         0.224904         3.392086
 H         2.215033        -2.060189         2.857816
 H         1.507963        -0.363677        -1.698362
 H         0.049084         0.229732        -0.947003
 H         1.546775         1.171606        -1.028567
 H         3.463641        -1.261844         0.298993
