19
Iteration:  3499charge 0 multiplicity 1
 C         1.271684         2.247307         1.350713
 C         1.974743         0.914214         1.641592
 C         1.695547         0.115310         2.862586
 C         2.041934        -1.211229         2.153038
 O         0.873337        -1.213357         1.257371
 C         1.597029        -0.137929         0.513044
 C         1.180920         0.186897        -0.954579
 C         2.945772        -0.657659         1.010580
 O         3.364754         0.746277         1.380085
 H         0.276965         1.958694         1.787601
 H         1.656817         3.173789         1.930480
 H         1.172007         2.673616         0.333083
 H         2.503441         0.468852         3.527903
 H         0.717870         0.072367         3.444768
 H         2.130159        -2.236608         2.475936
 H         1.824445        -0.418280        -1.571062
 H         0.154259        -0.228084        -0.936519
 H         1.084421         1.247148        -1.311040
 H         3.767245        -1.274633         0.539581
