19
Iteration:  2637
 C         1.978500         2.532447         1.254072
 C         2.123354         0.971876         1.454849
 C         2.191020         0.228772         2.864540
 C         2.018190        -1.162262         2.277084
 O         0.682159        -1.064323         1.678713
 C         1.285817        -0.211738         0.618390
 C         0.515727        -0.047555        -0.615563
 C         2.731350        -0.765444         0.832487
 O         3.345161         0.517753         0.848578
 H         0.941108         2.998666         1.184629
 H         2.701127         2.978565         1.953977
 H         2.431028         2.772037         0.265087
 H         3.122936         0.405847         3.395071
 H         1.264368         0.427597         3.527847
 H         2.230355        -2.076501         2.827080
 H        -0.548955         0.193067        -0.600376
 H         1.087409         0.676718        -1.211538
 H         0.522461        -1.160693        -1.018762
 H         3.256922        -1.579397         0.348907
