19
Iteration:  2361charge 0 multiplicity 1
 C         2.063264         2.393314         1.104517
 C         2.238701         0.988726         1.363893
 C         2.300936         0.370459         2.907940
 C         1.996775        -1.059210         2.353871
 O         0.657786        -0.929266         1.823464
 C         1.251343        -0.181894         0.678568
 C         0.390924         0.120702        -0.507750
 C         2.632545        -0.949789         0.835040
 O         3.377257         0.228526         0.637796
 H         1.176843         2.576623         1.696664
 H         2.926750         2.940907         1.564795
 H         1.857968         2.718009         0.006293
 H         3.407548         0.541665         3.216292
 H         1.707758         0.882694         3.603078
 H         2.072176        -1.983503         2.978933
 H        -0.336126        -0.657499        -0.645360
 H        -0.221501         0.997896        -0.226916
 H         0.856827         0.297954        -1.441273
 H         3.074125        -1.854755         0.369128
