19
Iteration:   529
 C         2.609281         2.261543         0.612037
 C         2.385456         0.869560         1.254762
 C         2.640261         0.388478         2.681327
 C         2.010777        -1.045743         2.383871
 O         0.544600        -0.573570         2.194484
 C         1.107188        -0.088579         0.984625
 C         0.142974         0.276184        -0.093488
 C         2.185493        -1.021514         0.797106
 O         3.234085        -0.048071         0.451241
 H         2.346301         3.066087         1.195823
 H         3.701758         2.180475         0.350724
 H         2.145108         2.166020        -0.381458
 H         3.724385         0.421097         2.835755
 H         2.154877         0.951611         3.516035
 H         2.090279        -2.047741         2.991102
 H        -0.307154        -0.746198        -0.387419
 H        -0.619137         0.961023         0.214667
 H         0.749463         0.756578        -0.962184
 H         2.139806        -1.999552         0.200842
