19
Iteration:  4786
 C         1.311123         2.276541         1.507206
 C         1.770631         0.873310         1.604141
 C         1.715791         0.102061         2.873383
 C         2.235827        -1.183587         2.152243
 O         1.231503        -1.498210         1.197640
 C         1.455657        -0.262078         0.465244
 C         0.907050         0.215879        -0.815534
 C         3.024301        -0.449210         0.917752
 O         3.213564         0.882758         1.287190
 H         0.421849         2.562327         2.140159
 H         2.191563         2.845685         1.580256
 H         1.050092         2.517294         0.484553
 H         2.271545         0.354827         3.763530
 H         0.713716        -0.153024         3.276028
 H         2.631815        -1.833665         2.872067
 H        -0.000355        -0.198074        -1.085739
 H         0.652665         1.268714        -0.609533
 H         1.615189         0.025873        -1.624748
 H         3.877011        -0.980258         0.327985
