19
Iteration:   390charge 0 multiplicity 1
 C         2.529168         2.197251         0.842115
 C         2.426921         0.797424         1.194792
 C         2.623270         0.478448         2.675124
 C         2.049521        -0.912207         2.420411
 O         0.674684        -0.510147         2.200999
 C         1.105424        -0.084366         0.906389
 C         0.110603         0.332173        -0.162457
 C         2.229702        -1.128583         0.815519
 O         3.187288        -0.233513         0.295214
 H         1.596884         2.813236         1.410549
 H         3.333642         2.948282         1.225011
 H         2.421104         2.275067        -0.318023
 H         3.661905         0.597167         3.087653
 H         1.870626         1.047752         3.376083
 H         2.020246        -1.787835         3.170800
 H        -0.867693        -0.228913        -0.067834
 H         0.010072         1.467742        -0.143133
 H         0.641287         0.129876        -1.075687
 H         2.196866        -2.095297         0.427913
