19
Iteration:   543charge 0 multiplicity 1
 C         2.572124         2.224708         0.655566
 C         2.428657         0.886907         1.238506
 C         2.688877         0.372140         2.682884
 C         1.991237        -1.003764         2.359034
 O         0.668692        -0.593597         2.208573
 C         1.070264         0.088024         0.958041
 C         0.176362         0.237854        -0.155268
 C         2.179378        -1.071917         0.824437
 O         3.146858        -0.146064         0.459227
 H         2.092624         3.027764         1.350041
 H         3.580296         2.642314         0.594498
 H         1.962404         2.375505        -0.261166
 H         3.725642         0.311381         3.043713
 H         1.860369         0.862601         3.380008
 H         2.181027        -1.783895         3.120853
 H        -0.451595        -0.648713        -0.440688
 H        -0.557650         1.171622        -0.082414
 H         0.767542         0.410512        -1.037684
 H         2.076377        -1.906706         0.236024
