19
Iteration:   733
 C         2.559327         2.262617         0.777949
 C         2.374471         0.860890         1.186247
 C         2.758558         0.293772         2.673411
 C         1.941359        -0.931981         2.435340
 O         0.596892        -0.437504         2.214661
 C         1.083112        -0.077714         0.920739
 C         0.069949         0.182387        -0.248001
 C         2.268009        -1.060846         0.908971
 O         3.181985        -0.085850         0.384425
 H         2.597567         3.055268         1.469217
 H         3.497433         2.391203         0.139048
 H         1.686955         2.481325         0.133224
 H         3.833094        -0.134860         2.577392
 H         2.655715         0.871846         3.538328
 H         1.934690        -1.737340         3.229741
 H        -0.005473        -0.832241        -0.687728
 H        -0.832206         0.601111         0.219506
 H         0.647436         0.796861        -1.057542
 H         2.424955        -2.023571         0.342923
