19
Iteration:  1469
 C         2.552498         2.271941         0.751942
 C         2.327373         0.870880         1.213129
 C         2.706916         0.458204         2.641512
 C         1.994593        -0.928078         2.469870
 O         0.628027        -0.610386         2.163782
 C         1.085268        -0.112944         0.872368
 C         0.022597         0.297243        -0.187102
 C         2.277362        -1.105079         0.824235
 O         3.255826        -0.157547         0.459511
 H         2.514731         3.036413         1.534828
 H         3.573725         2.272447         0.387856
 H         1.805336         2.593172        -0.053915
 H         3.695964         0.246043         2.894197
 H         2.230637         1.080352         3.462853
 H         2.178103        -1.770726         3.069776
 H        -0.600563        -0.461863        -0.578080
 H        -0.472620         1.118728         0.334666
 H         0.612843         0.736712        -1.034264
 H         2.286433        -2.157173         0.320585
