19
Iteration:  1780charge 0 multiplicity 1
 C         2.565864         2.321817         0.792117
 C         2.281102         0.891978         1.271526
 C         2.588741         0.463981         2.593317
 C         2.000318        -0.934355         2.425044
 O         0.571914        -0.700132         2.116905
 C         1.152391        -0.154838         0.860683
 C         0.149678         0.207692        -0.149590
 C         2.319539        -1.069151         0.852756
 O         3.221875        -0.015748         0.452753
 H         3.504614         2.593146         1.310221
 H         2.564991         2.338116        -0.296019
 H         1.934850         3.053731         1.192556
 H         3.664573         0.273789         2.738494
 H         2.021686         0.902545         3.433212
 H         2.204457        -1.726759         3.070338
 H         0.719006         0.686137        -0.930392
 H        -0.264953        -0.624398        -0.727116
 H        -0.689174         0.626315         0.345234
 H         2.509459        -1.956334         0.339615
