19
Iteration:  4214charge 0 multiplicity 1
 C         1.657846         2.555128         1.591629
 C         1.829404         0.994745         1.623265
 C         1.729729         0.163489         2.917241
 C         2.037613        -1.168614         2.190380
 O         0.876951        -1.430508         1.247196
 C         1.424317        -0.274723         0.483723
 C         1.138901        -0.052457        -1.012404
 C         2.895680        -0.576717         0.928457
 O         3.267331         0.779369         1.265888
 H         0.639369         2.647505         1.985446
 H         2.339605         3.166583         2.219681
 H         1.569227         3.029191         0.655293
 H         2.397693         0.501361         3.700804
 H         0.672035         0.054579         3.340844
 H         2.307435        -2.120562         2.529708
 H         0.242578        -0.606229        -1.333244
 H         0.890709         0.995853        -1.260028
 H         2.011839        -0.547404        -1.587128
 H         3.636338        -0.954250         0.211939
