19
Iteration:  3322charge 0 multiplicity 1
 C         1.346188         2.347469         1.406626
 C         1.768748         0.876458         1.620360
 C         1.866520         0.140625         3.020931
 C         2.110932        -1.211801         2.131754
 O         0.879280        -1.321066         1.238158
 C         1.547778        -0.267840         0.536141
 C         1.241177         0.179077        -0.912584
 C         2.931740        -0.606233         0.974138
 O         3.188809         0.790038         1.227576
 H         2.097656         3.034977         0.990705
 H         0.488249         2.135805         0.743712
 H         0.880078         2.928430         2.285512
 H         2.673912         0.734170         3.602198
 H         0.961511         0.087416         3.511307
 H         2.407971        -1.987333         2.829125
 H         0.500443        -0.534665        -1.407619
 H         0.851693         1.150887        -1.060243
 H         2.145327         0.092356        -1.473783
 H         3.722683        -1.200169         0.537717
