19
Iteration:  3680
 C         1.345514         2.356093         1.406303
 C         1.887545         0.958351         1.569146
 C         1.708092         0.164431         2.861079
 C         2.051680        -1.244484         2.177453
 O         0.910753        -1.352011         1.180268
 C         1.565468        -0.228487         0.514403
 C         1.102239         0.175274        -0.866219
 C         2.948460        -0.637077         1.060658
 O         3.362243         0.753873         1.285957
 H         0.256879         2.387784         1.386432
 H         1.690576         2.907886         2.278518
 H         1.751294         2.863158         0.499284
 H         2.587555         0.416306         3.536146
 H         0.815133         0.183951         3.401700
 H         2.327020        -2.023009         2.946855
 H         1.060955        -0.472709        -1.776787
 H         0.042822         0.364037        -0.714920
 H         1.578493         1.132927        -1.049111
 H         3.798124        -1.282096         0.692661
