19
Iteration:  4506charge 0 multiplicity 1
 C         1.372077         2.352731         1.561587
 C         1.904415         0.919570         1.624881
 C         1.688241         0.113769         2.840671
 C         2.121912        -1.251402         2.140534
 O         1.042614        -1.270256         1.161445
 C         1.571480        -0.137593         0.449609
 C         0.838832        -0.053122        -0.884667
 C         3.045715        -0.489255         0.971557
 O         3.347417         0.836358         1.324901
 H         0.253330         2.355932         1.478240
 H         1.757798         2.949472         2.432933
 H         1.673274         2.895315         0.678267
 H         2.292473         0.320349         3.730332
 H         0.579565        -0.135360         3.029283
 H         2.357700        -2.048320         2.826131
 H        -0.209671        -0.408614        -0.762023
 H         0.875759         0.976091        -1.382518
 H         1.415350        -0.706462        -1.645701
 H         3.845922        -1.261906         0.718698
