19
Iteration:   205
 C         2.600128         2.213405         0.697836
 C         2.375156         0.834469         1.190518
 C         2.725698         0.400925         2.629101
 C         1.987307        -0.924202         2.513376
 O         0.636844        -0.700966         2.174052
 C         1.063868        -0.134150         0.903318
 C         0.126346         0.376568        -0.101195
 C         2.232207        -1.071308         0.858103
 O         3.103858        -0.050036         0.382785
 H         1.917470         2.987459         1.076882
 H         3.548389         2.598731         0.969814
 H         2.594738         2.033063        -0.396986
 H         3.883573         0.318255         2.719104
 H         2.502442         1.060614         3.477015
 H         2.016820        -1.748637         3.202618
 H        -0.949853         0.036217        -0.042416
 H         0.059915         1.597251        -0.165016
 H         0.488534         0.236258        -1.140811
 H         2.317664        -2.021080         0.440780
