19
Iteration:  3811charge 0 multiplicity 1
 C         1.249362         2.271256         1.301555
 C         1.982469         0.978559         1.641031
 C         1.783418         0.133152         2.914170
 C         2.037778        -1.167598         2.081470
 O         0.853420        -1.260805         1.201249
 C         1.531823        -0.232347         0.585969
 C         1.078662         0.253851        -0.831101
 C         2.997617        -0.654206         1.022877
 O         3.391850         0.680472         1.329365
 H         0.149760         2.093849         1.353317
 H         1.422026         3.028686         2.103790
 H         1.545743         2.638445         0.301565
 H         2.755748         0.300114         3.430595
 H         0.981046         0.129121         3.622834
 H         2.155114        -2.077513         2.637395
 H         1.140979        -0.662637        -1.405607
 H         0.180404         0.771003        -0.922889
 H         1.803439         0.909154        -1.305328
 H         3.593511        -1.394172         0.444702
