19
Iteration:   597
 C         2.478741         2.299986         0.905387
 C         2.384294         0.787354         1.117176
 C         2.730532         0.410132         2.587960
 C         1.996795        -0.941015         2.522721
 O         0.596272        -0.447678         2.148595
 C         1.158642        -0.059622         0.807129
 C         0.093735         0.251565        -0.156965
 C         2.248107        -1.163915         0.876736
 O         3.232443        -0.192609         0.351635
 H         1.488369         2.689072         1.341679
 H         3.214514         2.729365         1.594140
 H         2.701994         2.519252        -0.165458
 H         3.810743         0.204294         2.663682
 H         2.288552         1.233232         3.357253
 H         2.172679        -1.686428         3.357827
 H        -0.841520        -0.317459         0.222255
 H        -0.146034         1.443138        -0.224214
 H         0.257556        -0.015791        -1.203081
 H         2.272489        -2.132644         0.463809
