19
Iteration:  4346charge 0 multiplicity 1
 C         1.508361         2.468613         1.545250
 C         1.792750         0.966603         1.615732
 C         1.703291         0.111211         2.878601
 C         2.103825        -1.209809         2.109950
 O         1.022128        -1.383645         1.187044
 C         1.512154        -0.207957         0.492735
 C         0.976854        -0.023593        -0.915360
 C         2.939584        -0.515142         0.967881
 O         3.293476         0.781714         1.306883
 H         0.483683         2.755467         1.799873
 H         2.104452         2.945104         2.419639
 H         1.813855         3.004576         0.611948
 H         2.478787         0.618598         3.430155
 H         0.618547        -0.093243         3.245581
 H         2.201019        -2.039762         2.864828
 H         1.746504         0.632029        -1.409646
 H         1.069017        -1.106658        -1.205601
 H        -0.061227         0.322511        -1.042859
 H         3.637979        -1.046243         0.381198
