19
Iteration:  3679charge 0 multiplicity 1
 C         1.342004         2.351804         1.406479
 C         1.892156         0.962027         1.566424
 C         1.712039         0.165136         2.866949
 C         2.045930        -1.242762         2.184502
 O         0.908980        -1.356076         1.179752
 C         1.564491        -0.232463         0.517008
 C         1.104496         0.185521        -0.867439
 C         2.953438        -0.643836         1.053019
 O         3.358834         0.757127         1.286248
 H         0.247534         2.409678         1.380819
 H         1.649758         2.919507         2.285267
 H         1.761073         2.840783         0.469579
 H         2.608085         0.438703         3.526739
 H         0.805906         0.176308         3.386064
 H         2.349721        -2.026776         2.953712
 H         1.066030        -0.450546        -1.790656
 H         0.052347         0.362779        -0.694983
 H         1.606208         1.117740        -1.040830
 H         3.778251        -1.312882         0.679575
