19
Iteration:  3555
 C         1.566254         2.482328         1.616860
 C         1.828173         0.993014         1.631684
 C         1.525988         0.153770         2.817607
 C         2.083381        -1.100414         2.186174
 O         1.009149        -1.486587         1.152217
 C         1.545868        -0.250705         0.432596
 C         1.066496        -0.060928        -0.967160
 C         2.960807        -0.518963         1.009482
 O         3.294078         0.807657         1.327138
 H         0.821394         2.847851         2.389186
 H         2.512727         2.749426         2.179623
 H         1.475693         2.952626         0.630047
 H         1.982475         0.432514         3.726635
 H         0.373949        -0.074087         2.833490
 H         2.293381        -1.989273         2.721913
 H         1.333973        -0.782367        -1.698933
 H        -0.058351         0.009611        -0.934414
 H         1.360946         0.906293        -1.434160
 H         3.714483        -1.127041         0.526297
