19
Iteration:  2888charge 0 multiplicity 1
 C         1.725136         2.416424         1.335722
 C         2.047596         0.915878         1.486359
 C         1.941857         0.324211         2.856033
 C         2.032994        -1.109529         2.283132
 O         0.866853        -1.235918         1.475580
 C         1.359987        -0.263404         0.638530
 C         0.702481         0.097072        -0.687813
 C         2.813238        -0.735616         0.852519
 O         3.376139         0.552515         0.970823
 H         0.718769         2.686076         0.848079
 H         1.962912         2.833923         2.317383
 H         2.496195         2.937620         0.654185
 H         2.779228         0.475094         3.649410
 H         0.945741         0.521512         3.243467
 H         2.223315        -1.926057         2.975743
 H        -0.016583         0.981441        -0.557313
 H         1.519405         0.265274        -1.403131
 H         0.088332        -0.688381        -1.149652
 H         3.497528        -1.457574         0.440847
