19
Iteration:  4130charge 0 multiplicity 1
 C         1.472927         2.379557         1.269071
 C         1.886096         0.944480         1.578532
 C         1.776024         0.154618         2.893596
 C         1.985610        -1.212160         2.233268
 O         0.875541        -1.342003         1.249514
 C         1.546253        -0.251886         0.541693
 C         1.081174         0.240316        -0.818527
 C         2.907328        -0.672745         0.963280
 O         3.320308         0.720045         1.329401
 H         0.469320         2.447036         1.655311
 H         2.154740         2.971708         1.905315
 H         1.556947         2.644266         0.163382
 H         2.655539         0.293487         3.534765
 H         0.769999         0.251569         3.410886
 H         2.369677        -2.172936         2.708645
 H         1.378528        -0.456570        -1.596672
 H        -0.043970         0.366286        -0.967903
 H         1.571018         1.193046        -1.046435
 H         3.698551        -1.135315         0.382447
