19
Iteration:  1815charge 0 multiplicity 1
 C         2.495549         2.395815         0.914577
 C         2.442500         0.995991         1.246361
 C         2.567780         0.419229         2.653336
 C         2.014253        -0.993435         2.328042
 O         0.613036        -0.585390         2.108333
 C         1.132916        -0.167936         0.836148
 C         0.035965         0.127031        -0.225616
 C         2.313660        -1.084619         0.817869
 O         3.287129        -0.123252         0.494647
 H         3.512824         2.632022         0.502950
 H         1.839210         2.677730         0.090719
 H         2.178436         2.988726         1.771626
 H         3.548410         0.459200         3.057447
 H         1.913935         0.957841         3.462756
 H         2.219424        -1.638209         3.171106
 H         0.472966        -0.025386        -1.206948
 H        -0.766778        -0.604387         0.033364
 H        -0.211922         1.128471        -0.374289
 H         2.429956        -2.107005         0.333785
