19
Iteration:  1324
 C         2.558282         2.309477         0.633603
 C         2.312788         0.939305         1.227928
 C         2.740843         0.298263         2.631453
 C         1.957327        -1.049277         2.455773
 O         0.646924        -0.585331         2.233015
 C         1.087223        -0.132509         0.916043
 C         0.084703         0.352710        -0.156739
 C         2.295772        -1.170002         0.836576
 O         3.182387        -0.058487         0.415903
 H         1.577726         2.863839         0.552333
 H         3.374325         2.892351         1.169703
 H         2.940107         2.185376        -0.366214
 H         3.748899         0.460725         2.891281
 H         2.162588         1.076017         3.379762
 H         2.026701        -1.681676         3.456519
 H        -0.635031        -0.504997        -0.074041
 H        -0.392375         1.324746         0.178492
 H         0.621226         0.623988        -1.017993
 H         2.428091        -2.083121         0.254289
