19
Iteration:  2673charge 0 multiplicity 1
 C         1.775989         2.492875         1.329173
 C         2.113169         0.991092         1.374353
 C         2.201850         0.301676         2.821327
 C         2.035712        -1.098450         2.291979
 O         0.702153        -1.137054         1.712128
 C         1.331861        -0.222778         0.664285
 C         0.610846         0.105771        -0.656779
 C         2.704957        -0.857267         0.815367
 O         3.410445         0.386830         0.846646
 H         1.160842         2.807294         2.152660
 H         2.678604         3.131683         1.354595
 H         1.363401         2.724106         0.281850
 H         3.023996         0.732129         3.422526
 H         1.319118         0.650067         3.214520
 H         2.225044        -1.969301         2.968902
 H         0.309681         1.165245        -0.745565
 H         1.315663        -0.130467        -1.447443
 H        -0.179344        -0.519708        -0.888697
 H         3.267167        -1.710353         0.408815
