19
Iteration:  4673charge 0 multiplicity 1
 C         1.377397         2.349640         1.643076
 C         1.866269         0.979799         1.593376
 C         1.692815         0.094248         2.879999
 C         2.192441        -1.138984         2.096975
 O         1.155213        -1.468633         1.205117
 C         1.494026        -0.300161         0.529070
 C         0.944313         0.048639        -0.921495
 C         2.905454        -0.490240         0.964591
 O         3.232504         0.881447         1.232455
 H         0.455273         2.457960         1.146371
 H         1.513349         2.823033         2.608255
 H         2.000016         2.923401         0.911250
 H         2.464651         0.266333         3.681669
 H         0.645836         0.128726         3.203039
 H         2.666150        -1.830222         2.827883
 H         1.735632         0.048367        -1.749633
 H         0.104862        -0.605806        -1.168371
 H         0.539917         1.067849        -0.881531
 H         3.586134        -0.961440         0.328711
