19
Iteration:  1587charge 0 multiplicity 1
 C         2.553476         2.238540         0.769413
 C         2.398878         0.813570         1.117835
 C         2.611804         0.427461         2.663575
 C         2.029379        -0.982409         2.395742
 O         0.670241        -0.523421         2.202101
 C         1.109683        -0.141510         0.868047
 C         0.003517         0.355831        -0.100747
 C         2.315478        -1.164628         0.794849
 O         3.232105        -0.116689         0.471963
 H         1.561169         2.600992         0.506704
 H         2.832567         2.861469         1.546172
 H         3.033960         2.328282        -0.169628
 H         3.582580         0.588757         2.895218
 H         1.946311         1.077871         3.317244
 H         2.092173        -1.736187         3.123136
 H        -0.989554         0.300778         0.276594
 H         0.373253         1.389669        -0.304823
 H        -0.164297        -0.215335        -0.964067
 H         2.600240        -2.084655         0.226459
