19
Iteration:  4460
 C         1.326986         2.364843         1.335418
 C         1.846715         0.901446         1.567102
 C         1.714296         0.092280         2.874478
 C         2.193449        -1.176267         2.157154
 O         1.050150        -1.446375         1.206461
 C         1.488263        -0.235229         0.510279
 C         0.907320         0.262697        -0.733797
 C         3.043352        -0.569027         1.001074
 O         3.311840         0.758908         1.359224
 H         0.206465         2.312924         1.351002
 H         1.752344         3.023970         2.053962
 H         1.592121         2.685306         0.339634
 H         2.461864         0.629635         3.489864
 H         0.684613         0.069948         3.145025
 H         2.446842        -2.128326         2.630499
 H         0.513632        -0.552586        -1.337391
 H         0.207236         1.123856        -0.815731
 H         1.772478         0.583939        -1.449506
 H         3.914601        -1.004073         0.347114
