19
Iteration:   752charge 0 multiplicity 1
 C         2.594236         2.322942         0.692400
 C         2.355563         0.903692         1.261023
 C         2.785056         0.363175         2.627963
 C         2.036376        -0.990426         2.451131
 O         0.534479        -0.548628         2.223424
 C         1.086977        -0.032859         0.976364
 C         0.172769         0.157669        -0.238542
 C         2.147760        -1.082659         0.807746
 O         3.144104        -0.109842         0.417373
 H         2.633719         3.078753         1.567629
 H         3.616937         2.229589         0.346217
 H         1.827369         2.685241         0.005303
 H         3.955444         0.435178         2.749843
 H         2.301333         0.976868         3.493682
 H         2.167167        -1.819196         3.080118
 H        -0.237995        -0.783059        -0.554042
 H        -0.602632         0.975392         0.105828
 H         0.909090         0.485196        -1.020338
 H         1.984694        -1.989091         0.380196
