19
Iteration:  4708
 C         1.157475         2.372639         1.738337
 C         1.839657         0.992555         1.578059
 C         1.870646         0.059093         2.809997
 C         2.205710        -1.218234         2.080048
 O         0.981199        -1.238242         1.269433
 C         1.502516        -0.194180         0.419026
 C         1.044576        -0.117816        -0.922702
 C         3.033446        -0.524050         0.955965
 O         3.292988         0.851165         1.228817
 H         0.053999         2.381651         1.584223
 H         1.109006         2.810755         2.727064
 H         1.692311         3.120771         1.078091
 H         2.731105         0.299124         3.516527
 H         0.938933         0.070679         3.348108
 H         2.298557        -2.186797         2.633253
 H         1.573002        -0.810200        -1.528732
 H        -0.025856        -0.348563        -0.987752
 H         1.215732         0.960919        -1.195035
 H         3.766615        -1.095882         0.280438
