19
Iteration:   234
 C         2.474522         2.346128         0.771969
 C         2.459774         0.827383         1.186935
 C         2.719838         0.333180         2.611378
 C         1.993621        -1.005388         2.359299
 O         0.643139        -0.466443         2.200294
 C         1.120930        -0.004535         0.870645
 C         0.026291         0.277707        -0.084762
 C         2.176544        -1.085588         0.844431
 O         3.289372        -0.214594         0.453953
 H         1.550575         2.880377         1.042114
 H         3.448745         2.877026         0.937084
 H         2.448775         2.328341        -0.337971
 H         3.783983         0.372364         2.833739
 H         2.194151         0.799146         3.388757
 H         2.011571        -1.900667         2.932922
 H        -0.710281        -0.477926         0.057016
 H        -0.385802         1.177016         0.041257
 H         0.510136         0.137208        -1.108379
 H         2.141817        -2.124053         0.371182
