19
Iteration:  4404
 C         1.280881         2.418260         1.693849
 C         1.887929         0.955724         1.564733
 C         1.854080         0.151238         2.849348
 C         2.073033        -1.125790         2.146336
 O         0.925663        -1.315518         1.238491
 C         1.541400        -0.198043         0.419399
 C         1.116447        -0.066194        -0.974247
 C         2.876176        -0.595813         0.954602
 O         3.332035         0.782139         1.275781
 H         0.278973         2.380989         2.101331
 H         1.844630         2.977997         2.422180
 H         1.246123         3.092858         0.809300
 H         2.648908         0.574227         3.487558
 H         0.981967         0.208933         3.430201
 H         2.303202        -2.124647         2.599703
 H         1.896588        -0.610226        -1.560433
 H         0.242002        -0.751051        -1.005616
 H         0.899892         0.965378        -1.349711
 H         3.559783        -1.207944         0.323485
