19
Iteration:  3396
 C         1.473175         2.475429         1.528479
 C         1.848205         0.976974         1.573726
 C         1.573369         0.124387         2.856856
 C         2.058808        -1.266488         2.117071
 O         0.974165        -1.444940         1.148242
 C         1.605798        -0.170966         0.483840
 C         0.968408        -0.022304        -0.989637
 C         3.081539        -0.474606         1.062119
 O         3.302414         0.822592         1.427159
 H         1.051915         2.765642         0.559744
 H         0.874498         2.805919         2.345431
 H         2.435074         2.990562         1.496631
 H         2.345664         0.309990         3.648243
 H         0.576960         0.057562         3.219481
 H         2.259346        -2.167300         2.749273
 H         0.315078        -0.893516        -1.138167
 H         0.363177         0.872919        -1.122511
 H         1.752540        -0.100273        -1.728370
 H         3.874127        -0.950627         0.514874
