19
Iteration:  3321charge 0 multiplicity 1
 C         1.347679         2.353853         1.408739
 C         1.755627         0.875730         1.615702
 C         1.869118         0.144652         3.028951
 C         2.109446        -1.215141         2.128526
 O         0.891840        -1.317853         1.238117
 C         1.546520        -0.264735         0.532198
 C         1.236964         0.175758        -0.912855
 C         2.930673        -0.612542         0.974961
 O         3.187423         0.792757         1.226806
 H         2.117282         3.027312         1.005958
 H         0.506020         2.171360         0.735336
 H         0.864912         2.910493         2.273611
 H         2.681726         0.719690         3.573028
 H         0.973146         0.069034         3.508655
 H         2.380444        -2.014395         2.824145
 H         0.538604        -0.542293        -1.380099
 H         0.860703         1.149601        -1.040914
 H         2.141563         0.094776        -1.477949
 H         3.691007        -1.235763         0.563357
