19
Iteration:  2267
 C         2.200122         2.450812         1.101154
 C         2.273458         0.859870         1.286210
 C         2.339297         0.429970         2.729814
 C         2.093830        -1.022221         2.341135
 O         0.671788        -0.879746         1.825417
 C         1.158604        -0.140570         0.715185
 C         0.200513         0.073425        -0.406634
 C         2.532890        -1.000396         0.825949
 O         3.448923         0.197421         0.759582
 H         2.511899         2.757763         0.074267
 H         1.177616         2.881986         1.307379
 H         2.820331         2.873114         1.864864
 H         3.382272         0.585599         3.090783
 H         1.616309         0.893877         3.483695
 H         2.315146        -1.902728         2.977617
 H         0.552378         0.642009        -1.322724
 H        -0.223157        -0.906198        -0.726594
 H        -0.810298         0.656799        -0.159864
 H         2.722943        -1.940171         0.275236
