19
Iteration:  1277charge 0 multiplicity 1
 C         2.456038         2.325868         0.808993
 C         2.473156         0.861904         1.113635
 C         2.625740         0.445455         2.614684
 C         1.976056        -0.981303         2.457436
 O         0.659122        -0.579213         2.190986
 C         1.179912        -0.101654         0.835779
 C        -0.005825         0.346852        -0.127246
 C         2.238763        -1.189975         0.839460
 O         3.303600        -0.180544         0.448529
 H         1.789622         2.914083         1.395281
 H         3.465874         2.721172         0.748649
 H         2.119067         2.452300        -0.200575
 H         3.777713         0.480330         2.912055
 H         2.115051         0.970036         3.401005
 H         2.100751        -1.812696         3.099337
 H        -0.919530        -0.047947         0.375475
 H        -0.020406         1.425662        -0.259044
 H         0.156642         0.081562        -1.203839
 H         2.259142        -2.083713         0.327634
