19
Iteration:  2583
 C         2.021336         2.446448         1.304901
 C         2.130875         0.916533         1.378387
 C         2.093871         0.372392         2.778384
 C         2.042928        -1.119436         2.276031
 O         0.688816        -1.055092         1.704369
 C         1.307269        -0.236092         0.600139
 C         0.401321         0.034548        -0.568715
 C         2.850600        -0.864735         0.858833
 O         3.414410         0.424282         0.830767
 H         1.246698         2.722596         0.479242
 H         1.581941         3.151227         2.050886
 H         2.984336         2.915603         1.109372
 H         2.912524         0.814114         3.300468
 H         1.142378         0.532666         3.421283
 H         2.058883        -1.910869         3.020299
 H        -0.264503        -0.785460        -0.682419
 H        -0.176669         0.881211        -0.232996
 H         0.860553         0.268621        -1.597072
 H         3.407183        -1.659093         0.368257
