19
Iteration:   699
 C         2.549453         2.360391         0.830319
 C         2.429940         0.840356         1.128303
 C         2.567809         0.469224         2.586672
 C         2.037789        -0.906544         2.393721
 O         0.602090        -0.518491         2.148646
 C         1.111184        -0.017241         0.886353
 C         0.038986         0.259116        -0.073670
 C         2.298856        -1.133562         0.838571
 O         3.295219        -0.343609         0.435225
 H         2.353403         2.889003         1.783019
 H         3.524576         2.439419         0.329424
 H         1.776387         2.556857         0.074909
 H         3.726286         0.519199         2.848998
 H         2.032155         1.071911         3.315117
 H         2.204686        -1.686919         3.123638
 H        -0.183467        -0.619112        -0.668879
 H        -1.028455         0.556647         0.395464
 H         0.361513         1.153970        -0.742209
 H         2.040654        -2.116980         0.453397
