19
Iteration:  1204
 C         2.678985         2.322668         0.825070
 C         2.404808         0.870870         1.189802
 C         2.636006         0.461932         2.570781
 C         2.029998        -0.988713         2.409433
 O         0.600876        -0.561538         2.229070
 C         1.040601        -0.188480         0.934565
 C         0.136838         0.221961        -0.159206
 C         2.202287        -1.105411         0.836284
 O         3.129980        -0.105732         0.351846
 H         2.358626         3.000349         1.696134
 H         3.818724         2.483535         0.601717
 H         2.292685         2.778121        -0.104397
 H         3.652527         0.602089         2.893512
 H         2.002145         1.072769         3.297471
 H         2.181849        -1.761559         3.265487
 H        -0.485621        -0.684546        -0.457815
 H        -0.581400         1.057187         0.179855
 H         0.724098         0.583866        -0.978945
 H         2.348204        -2.160690         0.370619
