19
Iteration:  4617
 C         1.224248         2.253333         1.417912
 C         1.914442         0.901659         1.627942
 C         1.793683         0.115478         2.962854
 C         2.113986        -1.221820         2.075773
 O         1.024637        -1.333358         1.122515
 C         1.589586        -0.202186         0.495860
 C         0.845522         0.126857        -0.807017
 C         3.079627        -0.504472         0.948008
 O         3.360709         0.842594         1.363872
 H         0.234448         2.155653         1.769282
 H         1.764876         3.105581         1.900188
 H         1.364083         2.346211         0.341615
 H         2.421477         0.345503         3.826826
 H         0.733192         0.127356         3.359773
 H         2.246457        -2.028225         2.802696
 H         1.147664         1.072145        -1.437003
 H         1.085863        -0.684736        -1.541093
 H        -0.225424         0.164036        -0.669943
 H         3.923678        -0.932978         0.546174
