19
Iteration:  2204charge 0 multiplicity 1
 C         2.211599         2.378340         0.973256
 C         2.273125         1.007483         1.347360
 C         2.437106         0.362392         2.778624
 C         2.064529        -0.985916         2.315008
 O         0.681753        -0.913574         1.988150
 C         1.131360        -0.202374         0.794473
 C         0.287145         0.194558        -0.489052
 C         2.463308        -0.966323         0.812180
 O         3.306926         0.133666         0.658182
 H         3.250036         2.856514         1.097228
 H         1.843769         2.403463        -0.083774
 H         1.683374         3.034145         1.653681
 H         3.432778         0.344301         3.153818
 H         1.753878         0.890639         3.589770
 H         2.333383        -1.880766         2.890742
 H        -0.489947         0.944516        -0.207597
 H         1.045284         0.640744        -1.126236
 H        -0.156181        -0.779323        -0.779491
 H         2.637215        -1.998927         0.429415
