19
Iteration:  2192charge 0 multiplicity 1
 C         2.256978         2.423119         1.018251
 C         2.272570         0.870586         1.324511
 C         2.428775         0.404063         2.815982
 C         2.067712        -1.016017         2.365207
 O         0.639464        -0.830831         1.990940
 C         1.158358        -0.194468         0.760994
 C         0.276228         0.106609        -0.412391
 C         2.434457        -0.977039         0.784360
 O         3.339359         0.162547         0.595560
 H         3.257658         2.878352         1.306016
 H         2.229554         2.628311        -0.097209
 H         1.348440         2.821505         1.417569
 H         3.477946         0.551835         3.120933
 H         1.652382         0.703144         3.624299
 H         2.267190        -1.890320         3.018668
 H        -0.702296         0.575097        -0.153071
 H         0.785070         0.871964        -1.017447
 H         0.116352        -0.596633        -1.285100
 H         2.737117        -1.818507         0.142319
