19
Iteration:  4008charge 0 multiplicity 1
 C         1.510981         2.439424         1.296192
 C         1.925990         0.940946         1.641046
 C         1.669762         0.132719         2.880738
 C         2.057045        -1.234949         2.209029
 O         0.986015        -1.430632         1.248066
 C         1.498832        -0.241396         0.522710
 C         0.994319         0.229291        -0.809373
 C         2.904967        -0.582227         0.962976
 O         3.317795         0.721192         1.285669
 H         0.405558         2.449639         1.116474
 H         1.701838         2.997976         2.264794
 H         2.081832         2.883777         0.500509
 H         2.326107         0.426646         3.685533
 H         0.545624         0.089060         3.140971
 H         2.617477        -1.932836         2.802372
 H         0.735958        -0.546506        -1.516405
 H         0.205207         0.966405        -0.728092
 H         1.966208         0.642315        -1.253952
 H         3.395197        -1.396284         0.349389
