19
Iteration:   634
 C         2.641609         2.276555         0.621734
 C         2.418458         0.884204         1.231693
 C         2.653283         0.348176         2.666002
 C         2.050399        -1.022433         2.400617
 O         0.583676        -0.620136         2.198964
 C         1.127449        -0.003493         0.953434
 C         0.021769         0.258047        -0.146762
 C         2.186954        -1.069251         0.824398
 O         3.209415        -0.080346         0.506406
 H         1.693751         2.931521         0.732038
 H         3.505859         2.841108         1.024580
 H         2.708499         2.242411        -0.460940
 H         3.783803         0.354789         2.894781
 H         2.176429         0.928511         3.410473
 H         2.270875        -1.865762         2.984991
 H        -0.751702        -0.455433        -0.075643
 H        -0.383706         1.304984         0.042951
 H         0.524994         0.198393        -1.157186
 H         2.147875        -1.899480         0.054741
