19
Iteration:   269
 C         2.550360         2.238377         0.878181
 C         2.477217         0.805106         1.124487
 C         2.779655         0.384959         2.595305
 C         1.936102        -0.876649         2.452695
 O         0.553006        -0.452023         2.182105
 C         1.056692        -0.109817         0.892589
 C         0.014628         0.219504        -0.127270
 C         2.234426        -1.087172         0.873641
 O         3.278258        -0.166655         0.331754
 H         1.941915         2.936390         1.556618
 H         3.514169         2.696800         1.174631
 H         2.358112         2.277225        -0.222191
 H         3.904717         0.209675         2.703118
 H         2.386530         1.108240         3.298967
 H         2.041915        -1.716451         3.122968
 H        -0.426744        -0.716803        -0.539059
 H        -0.788597         0.829699         0.243699
 H         0.403837         0.886373        -0.962343
 H         2.340707        -2.066844         0.463821
