19
Iteration:  4234charge 0 multiplicity 1
 C         1.510870         2.454519         1.590887
 C         1.894889         0.973699         1.665452
 C         1.753283         0.094825         2.860658
 C         2.043390        -1.172146         2.120818
 O         0.887925        -1.290715         1.256735
 C         1.442177        -0.212517         0.548205
 C         1.212520        -0.084381        -0.928079
 C         2.851561        -0.595394         0.946921
 O         3.244155         0.794946         1.172734
 H         0.427690         2.830855         1.667618
 H         2.100672         2.863301         2.472647
 H         1.969378         2.860620         0.680616
 H         2.457388         0.552569         3.620139
 H         0.750206         0.215170         3.340890
 H         2.293946        -2.049146         2.674131
 H         0.168029        -0.297101        -1.183850
 H         1.418599         0.937400        -1.230775
 H         1.759377        -0.794061        -1.633608
 H         3.612432        -1.247557         0.398804
