19
Iteration:  4262
 C         1.320718         2.369918         1.506408
 C         1.972303         0.965459         1.581730
 C         1.775332         0.142142         2.839040
 C         2.036010        -1.187225         2.152159
 O         0.880180        -1.228112         1.233877
 C         1.525467        -0.228206         0.497534
 C         1.019400         0.026793        -0.923660
 C         2.982258        -0.639850         0.998649
 O         3.392023         0.717145         1.294714
 H         0.261199         2.399783         1.462209
 H         1.632600         2.748729         2.454812
 H         1.745686         3.085314         0.772901
 H         2.529979         0.595278         3.470053
 H         0.883363         0.300682         3.381532
 H         2.169801        -2.103617         2.817242
 H         0.035894         0.580484        -0.977317
 H         1.707930         0.703286        -1.446278
 H         0.882684        -0.869321        -1.481897
 H         3.804320        -1.213241         0.603167
