19
Iteration:  1071charge 0 multiplicity 1
 C         2.590953         2.252657         0.871982
 C         2.426134         0.794227         1.134474
 C         2.671944         0.418395         2.659087
 C         2.035832        -0.923738         2.414950
 O         0.643884        -0.485595         2.199849
 C         1.085543        -0.063910         0.909138
 C         0.070079         0.204064        -0.179584
 C         2.182428        -1.105915         0.819568
 O         3.199209        -0.114199         0.350773
 H         1.740518         2.674791         1.380771
 H         3.607677         2.550454         1.297631
 H         2.317264         2.481063        -0.152040
 H         3.750732         0.385569         2.946983
 H         2.097782         0.949930         3.282276
 H         2.176166        -1.702420         3.075533
 H        -0.731234        -0.460531         0.180158
 H        -0.220656         1.240865        -0.141660
 H         0.457881        -0.026115        -1.171488
 H         2.127837        -1.966605         0.273614
