19
Iteration:  2437charge 0 multiplicity 1
 C         2.232549         2.379100         1.153306
 C         2.168197         0.962928         1.412713
 C         2.202161         0.338739         2.849803
 C         1.988649        -1.077480         2.316297
 O         0.664714        -1.057519         1.767412
 C         1.232447        -0.170406         0.716450
 C         0.393592         0.003080        -0.507328
 C         2.659769        -0.842960         0.811826
 O         3.323015         0.461779         0.724451
 H         2.693592         2.873696         1.963995
 H         2.791494         2.571818         0.238050
 H         1.163542         2.710089         1.136394
 H         3.240154         0.612480         3.262304
 H         1.535987         0.807776         3.509746
 H         2.326373        -2.048311         2.706096
 H        -0.132287         0.918167        -0.644460
 H         0.895794        -0.206445        -1.455019
 H        -0.319724        -0.790244        -0.385221
 H         3.044202        -1.591563         0.101545
