19
Iteration:   900
 C         2.620997         2.328304         0.819009
 C         2.450416         0.847034         1.137415
 C         2.790021         0.421173         2.560269
 C         2.068454        -0.950931         2.462139
 O         0.611218        -0.544203         2.208740
 C         1.003043        -0.054528         0.929578
 C         0.038748         0.272859        -0.191920
 C         2.176776        -1.136062         0.892417
 O         3.128679        -0.195501         0.349102
 H         1.657991         2.692138         0.869303
 H         3.122283         2.776502         1.638365
 H         3.189595         2.537639        -0.034233
 H         3.830685         0.391464         2.793416
 H         2.232531         1.087728         3.284286
 H         2.094423        -1.504401         3.328905
 H        -0.125899        -0.750532        -0.644546
 H        -0.875879         0.712542         0.132410
 H         0.589286         0.864425        -0.894168
 H         2.227683        -2.271734         0.630216
