19
Iteration:  2481charge 0 multiplicity 1
 C         2.026207         2.404800         1.317150
 C         2.269803         0.980790         1.349264
 C         2.269195         0.424503         2.819026
 C         1.999675        -1.028553         2.304305
 O         0.651837        -1.064719         1.767350
 C         1.282449        -0.153623         0.609639
 C         0.369493        -0.017879        -0.609352
 C         2.583357        -0.881334         0.815106
 O         3.440618         0.335616         0.777138
 H         2.809963         3.098964         1.245606
 H         1.375493         2.657372         0.458129
 H         1.562536         2.788083         2.255346
 H         3.319339         0.674342         3.263082
 H         1.572549         0.799451         3.535877
 H         2.269756        -1.859283         2.986316
 H         0.997198         0.570735        -1.277930
 H         0.226653        -0.937744        -1.206741
 H        -0.582869         0.363464        -0.227854
 H         2.945907        -1.798039         0.329007
