19
Iteration:  4019
 C         1.554647         2.408075         1.392046
 C         1.875353         1.018468         1.550754
 C         1.678850         0.090146         2.866013
 C         2.091640        -1.163270         2.165890
 O         0.941849        -1.428337         1.216492
 C         1.433358        -0.198028         0.572954
 C         0.972516         0.089815        -0.832775
 C         2.900948        -0.607218         0.969566
 O         3.417355         0.763387         1.317983
 H         0.542155         2.573778         0.947614
 H         1.598223         3.057917         2.323136
 H         2.234396         2.872460         0.697597
 H         2.204214         0.439279         3.730755
 H         0.609739        -0.141255         3.246227
 H         2.196876        -2.088456         2.749607
 H         0.568092        -0.763595        -1.346628
 H         0.198150         0.865871        -0.823075
 H         1.826977         0.661274        -1.359684
 H         3.773318        -1.057303         0.409155
