19
Iteration:  1158charge 0 multiplicity 1
 C         2.543376         2.331641         0.678664
 C         2.489180         0.870702         1.174624
 C         2.708293         0.349767         2.611037
 C         1.990610        -0.965954         2.375461
 O         0.583686        -0.542857         2.161134
 C         1.084633        -0.061532         0.844442
 C        -0.024268         0.276766        -0.034739
 C         2.252171        -1.106928         0.836548
 O         3.293844        -0.205544         0.553818
 H         1.583774         2.822478         0.949141
 H         3.470490         3.083227         0.773436
 H         2.554425         2.228058        -0.454396
 H         3.834803         0.289326         2.976891
 H         2.133208         0.804750         3.343464
 H         2.164405        -1.749728         3.025116
 H        -0.513898        -0.478753        -0.723411
 H        -0.831105         0.720836         0.591317
 H         0.275804         1.231887        -0.618924
 H         2.330867        -1.880391         0.211566
