19
Iteration:  2625
 C         2.038359         2.608811         1.223285
 C         2.141679         1.063499         1.511679
 C         2.142056         0.309454         2.846695
 C         2.013249        -1.174424         2.192133
 O         0.663789        -1.114351         1.683580
 C         1.304700        -0.257113         0.709129
 C         0.470919        -0.064449        -0.623253
 C         2.729325        -0.869343         0.805821
 O         3.392815         0.480280         0.873763
 H         0.933650         2.949420         1.131245
 H         2.224166         3.235036         2.145240
 H         2.670996         2.854103         0.385985
 H         3.086432         0.366495         3.386213
 H         1.266648         0.577923         3.589814
 H         2.208070        -2.095192         2.717061
 H        -0.570527        -0.146968        -0.299655
 H         0.593975         0.812589        -1.297118
 H         0.839562        -0.928871        -1.419193
 H         3.334715        -1.437862         0.098024
