19
Iteration:  4530charge 0 multiplicity 1
 C         1.378792         2.474525         1.657537
 C         1.838121         0.985312         1.567016
 C         1.754069         0.160265         2.879887
 C         2.164260        -1.227422         2.064235
 O         0.936141        -1.375864         1.205790
 C         1.514751        -0.254182         0.482578
 C         1.091985        -0.095064        -0.888671
 C         2.939497        -0.453621         0.848768
 O         3.259116         0.819154         1.351611
 H         0.302107         2.505330         1.673272
 H         1.865847         3.013065         2.545200
 H         1.609068         3.077825         0.729991
 H         2.587740         0.399433         3.516679
 H         0.848177        -0.196425         3.443573
 H         2.625679        -2.109836         2.521011
 H        -0.016021         0.163666        -0.844083
 H         1.673463         0.557995        -1.561835
 H         1.161492        -1.087538        -1.303542
 H         3.621633        -1.047604         0.361553
