19
Iteration:  2035charge 0 multiplicity 1
 C         2.248674         2.356973         0.927048
 C         2.421685         0.853596         1.265528
 C         2.544555         0.362710         2.788187
 C         2.008934        -1.023582         2.414857
 O         0.529029        -0.698213         1.996758
 C         1.245971        -0.086226         0.776228
 C         0.185258         0.129825        -0.307150
 C         2.437019        -0.991071         0.826719
 O         3.347580         0.084715         0.478236
 H         1.285525         2.689955         0.613612
 H         2.417522         3.003042         1.759842
 H         2.925826         2.686599         0.104871
 H         3.577581         0.288798         3.250261
 H         1.922921         0.774048         3.540742
 H         2.016691        -1.959119         2.972937
 H         0.517639         0.680172        -1.199960
 H        -0.378887        -0.850994        -0.411194
 H        -0.470728         0.744811         0.337767
 H         2.630115        -2.027887         0.466940
