19
Iteration:  1085
 C         2.593939         2.337436         0.853991
 C         2.373385         0.878280         1.156349
 C         2.677049         0.451581         2.506621
 C         2.073949        -0.956640         2.410767
 O         0.581122        -0.630889         2.213075
 C         1.102734        -0.060635         0.904883
 C         0.096415         0.290801        -0.129564
 C         2.195989        -1.125898         0.892542
 O         3.188309        -0.197381         0.373553
 H         1.824863         2.975070         1.298821
 H         3.472952         2.693001         1.330671
 H         2.879319         2.530388        -0.144326
 H         3.718472         0.500218         2.647122
 H         2.133562         1.047354         3.328656
 H         2.272101        -1.676908         3.224021
 H        -0.755930        -0.419884        -0.248828
 H        -0.378139         1.275298        -0.115418
 H         0.542330         0.249209        -1.095654
 H         2.181408        -2.269709         0.580662
