19
Iteration:  4989charge 0 multiplicity 1
 C         1.413011         2.511109         1.688092
 C         1.732376         1.051882         1.625287
 C         1.740704         0.043487         2.797095
 C         2.246565        -1.215785         2.058210
 O         1.154019        -1.504326         1.222746
 C         1.490719        -0.235469         0.447129
 C         0.895170        -0.039679        -0.865690
 C         2.959861        -0.440874         0.952827
 O         3.179699         0.856543         1.234975
 H         0.636329         2.480205         2.494864
 H         2.267663         2.958814         2.230141
 H         1.241691         3.016581         0.623388
 H         2.518298         0.240532         3.555400
 H         0.739427         0.015244         3.280805
 H         2.670073        -2.054582         2.558992
 H        -0.000841        -0.585521        -1.005566
 H         0.801587         1.026127        -1.192023
 H         1.756119        -0.450793        -1.486354
 H         3.870822        -0.936237         0.512923
