19
Iteration:   165
 C         2.600857         2.230778         0.753269
 C         2.492998         0.797353         1.160779
 C         2.651040         0.426453         2.613924
 C         2.004519        -0.955160         2.406889
 O         0.672190        -0.574901         2.215355
 C         1.064859        -0.058445         0.915997
 C         0.010804         0.319255        -0.108716
 C         2.152928        -1.093430         0.795543
 O         3.247434        -0.132585         0.426216
 H         1.998630         2.836179         1.486257
 H         3.712225         2.613097         0.699179
 H         2.113167         2.483767        -0.214676
 H         3.634176         0.428480         3.054295
 H         1.956452         1.219274         3.138554
 H         2.230736        -1.867943         3.084390
 H        -0.798541        -0.428299        -0.078907
 H        -0.438002         1.317683         0.113441
 H         0.580689         0.288439        -0.973736
 H         2.131399        -2.138874         0.314770
