19
Iteration:  2112charge 0 multiplicity 1
 C         2.400298         2.404136         0.939020
 C         2.238882         0.902421         1.309947
 C         2.406121         0.422199         2.729368
 C         2.032995        -1.050324         2.409001
 O         0.577893        -0.830019         1.958268
 C         1.219620        -0.156050         0.831905
 C         0.279114         0.081744        -0.262568
 C         2.463719        -0.950884         0.787998
 O         3.280830         0.164934         0.538182
 H         1.933460         3.026192         1.632734
 H         3.457488         2.529824         0.893335
 H         2.015994         2.823206         0.005707
 H         3.524947         0.525136         3.018083
 H         1.707729         0.774560         3.414935
 H         2.197821        -1.977557         2.929342
 H         0.162646        -0.787161        -0.931123
 H        -0.675683         0.189152         0.310961
 H         0.508217         0.945112        -0.933544
 H         2.507352        -1.808107         0.120248
