19
Iteration:  4967
 C         1.340110         2.372936         1.654109
 C         1.853186         0.968237         1.596711
 C         1.734333         0.107596         2.909918
 C         2.207103        -1.132726         2.150526
 O         1.084637        -1.450301         1.126367
 C         1.589450        -0.245299         0.377812
 C         0.769500        -0.069635        -0.878273
 C         3.052343        -0.480351         0.847725
 O         3.309695         0.942178         1.369284
 H         0.351785         2.340677         2.137011
 H         2.023197         2.941846         2.347205
 H         1.564345         2.745817         0.554623
 H         2.277916         0.554808         3.769953
 H         0.717748        -0.183149         3.239841
 H         2.397072        -2.077205         2.639684
 H        -0.182571        -0.443095        -0.557696
 H         0.636715         1.028676        -1.022480
 H         1.187989        -0.484878        -1.846579
 H         3.759034        -1.095951         0.238267
