19
Iteration:  3943
 C         1.343724         2.400175         1.574005
 C         1.880536         1.037503         1.662951
 C         1.812767         0.124896         2.905134
 C         2.070496        -1.152904         2.172442
 O         0.849377        -1.190293         1.169456
 C         1.576806        -0.129424         0.493973
 C         1.066580        -0.072638        -0.974005
 C         2.903244        -0.646175         0.966787
 O         3.422119         0.655672         1.282358
 H         0.409742         2.402993         2.216863
 H         2.124500         3.201647         1.806271
 H         0.980657         2.768155         0.640298
 H         2.495943         0.316974         3.714151
 H         0.706322         0.253585         3.226335
 H         2.056206        -2.070169         2.740794
 H         1.478872        -0.939009        -1.424875
 H         0.039748        -0.015869        -1.250286
 H         1.647619         0.734463        -1.479246
 H         3.454970        -1.389315         0.304229
