19
Iteration:  2403charge 0 multiplicity 1
 C         2.086265         2.546851         1.104083
 C         2.180426         0.984368         1.359598
 C         2.233821         0.394081         2.805167
 C         2.033939        -1.145042         2.253207
 O         0.668340        -1.004717         1.808747
 C         1.303604        -0.203201         0.699788
 C         0.363438         0.123929        -0.487952
 C         2.592335        -0.932936         0.847870
 O         3.423341         0.235548         0.810119
 H         1.925488         3.096606         1.978034
 H         2.822779         3.030520         0.486277
 H         1.228129         2.828178         0.414057
 H         3.367413         0.498673         3.066512
 H         1.500425         0.556569         3.555445
 H         2.374180        -2.082837         2.766840
 H        -0.610607         0.143529         0.013894
 H         0.685455         1.033431        -1.065414
 H         0.351481        -0.784198        -0.998339
 H         2.939745        -1.796010         0.241446
