19
Iteration:  4882charge 0 multiplicity 1
 C         1.111274         2.350648         1.653137
 C         1.783797         1.001478         1.521759
 C         1.875977        -0.006750         2.892037
 C         2.291520        -1.212782         2.130472
 O         0.958188        -1.478094         1.313994
 C         1.557290        -0.260066         0.537966
 C         1.169168         0.106727        -0.827161
 C         2.977732        -0.488065         0.911103
 O         3.208802         0.923873         1.085676
 H         0.052274         2.478601         1.363548
 H         1.215318         2.778772         2.636185
 H         1.625789         3.180397         1.099477
 H         2.633437         0.365545         3.615341
 H         0.905537        -0.016418         3.453953
 H         2.647536        -2.161660         2.406720
 H         0.432728         0.904863        -0.718561
 H         1.997314         0.553516        -1.490143
 H         0.535990        -0.712339        -1.344275
 H         3.665732        -0.959677         0.085207
