19
Iteration:  3066charge 0 multiplicity 1
 C         1.595923         2.491939         1.407665
 C         1.951382         0.981553         1.476231
 C         1.858928         0.177143         2.852719
 C         2.058737        -1.172443         2.189512
 O         0.896880        -1.324524         1.406771
 C         1.525035        -0.196975         0.532409
 C         0.732026         0.023528        -0.803909
 C         2.909096        -0.655951         0.981980
 O         3.411739         0.675235         1.131804
 H         2.449399         2.947430         0.938910
 H         0.638369         2.784759         0.905818
 H         1.382455         2.832048         2.430992
 H         2.415938         0.468661         3.676574
 H         0.776722         0.189731         3.193928
 H         2.268550        -2.039076         2.857507
 H        -0.186819        -0.510538        -0.831394
 H         0.447131         1.066364        -0.960202
 H         1.291823        -0.265562        -1.663685
 H         3.596150        -1.431177         0.531249
