19
Iteration:  3961charge 0 multiplicity 1
 C         1.320974         2.311214         1.476011
 C         1.982085         0.961557         1.534071
 C         1.784394         0.170454         2.888048
 C         1.959642        -1.208599         2.161089
 O         0.852700        -1.209761         1.266805
 C         1.528296        -0.210725         0.465381
 C         1.135756         0.134333        -0.888241
 C         2.969995        -0.673172         0.987541
 O         3.377716         0.710215         1.303635
 H         0.379816         2.255900         2.035063
 H         1.952532         3.130940         1.778271
 H         1.030463         2.486637         0.414786
 H         2.689573         0.432411         3.548307
 H         0.850035         0.242954         3.411400
 H         2.155294        -2.173539         2.609047
 H         1.148775        -0.817350        -1.550453
 H         0.048134         0.246447        -0.690446
 H         1.657502         1.007768        -1.351769
 H         3.812935        -1.195411         0.521120
