19
Iteration:  1429
 C         2.574696         2.372735         0.606968
 C         2.480621         0.916878         1.219843
 C         2.666754         0.369640         2.755222
 C         1.992692        -0.974740         2.345570
 O         0.576440        -0.627851         2.202393
 C         1.079475        -0.082939         0.900131
 C         0.105216         0.242074        -0.116496
 C         2.209452        -1.076931         0.877173
 O         3.221407        -0.169151         0.447970
 H         2.476993         3.241313         1.254116
 H         3.652864         2.400540         0.275151
 H         1.929941         2.481517        -0.276342
 H         3.792038         0.525559         3.020864
 H         1.991180         0.825940         3.391413
 H         2.073525        -1.763280         3.154499
 H        -0.151050        -0.376454        -1.017764
 H        -0.818981         0.458701         0.408414
 H         0.415746         1.172888        -0.650201
 H         2.131886        -1.984578         0.319427
