19
Iteration:   507charge 0 multiplicity 1
 C         2.675780         2.261146         0.658665
 C         2.378999         0.887007         1.176593
 C         2.659566         0.386222         2.658849
 C         1.962537        -0.957969         2.431473
 O         0.620816        -0.644834         2.129423
 C         1.107493        -0.119142         0.859563
 C        -0.092541         0.351824        -0.117609
 C         2.333688        -1.083643         0.893888
 O         3.199067        -0.084060         0.494529
 H         2.376870         2.945488         1.353148
 H         3.782614         2.233852         0.437880
 H         2.262817         2.384759        -0.356032
 H         3.735336         0.264660         2.867965
 H         2.299480         1.002059         3.491711
 H         2.095178        -1.704614         3.328473
 H        -0.542622        -0.571271        -0.637291
 H        -0.817334         0.860147         0.469702
 H         0.419815         1.121685        -0.820614
 H         2.525789        -2.143911         0.485436
