19
Iteration:  2831charge 0 multiplicity 1
 C         1.741017         2.345436         1.334422
 C         2.096531         0.952208         1.545261
 C         2.092712         0.248014         2.869614
 C         2.082815        -1.159569         2.230628
 O         0.702724        -1.048001         1.537826
 C         1.400010        -0.166068         0.653498
 C         0.673025         0.005121        -0.752632
 C         2.744826        -0.762475         0.852056
 O         3.391222         0.582835         0.984201
 H         1.632918         2.459296         0.158975
 H         0.663707         2.515841         1.599249
 H         2.428287         3.074320         1.806921
 H         3.016149         0.538924         3.364873
 H         1.152907         0.449193         3.526644
 H         2.409605        -2.013710         2.814192
 H        -0.120993        -0.711964        -0.743529
 H         0.280335         0.992877        -1.086136
 H         1.333485        -0.453543        -1.568324
 H         3.309935        -1.513357         0.322702
