19
Iteration:  3466charge 0 multiplicity 1
 C         1.238254         2.326734         1.491396
 C         1.880990         0.935395         1.594524
 C         1.681960         0.195054         2.911084
 C         2.010033        -1.153982         2.137187
 O         0.859300        -1.245918         1.154964
 C         1.619408        -0.256573         0.484331
 C         1.221718         0.131187        -0.880421
 C         3.000439        -0.663316         0.997140
 O         3.418987         0.701075         1.296797
 H         0.160995         2.240758         1.128051
 H         1.018328         2.648049         2.581864
 H         1.644054         3.098697         0.787501
 H         2.603070         0.580149         3.435797
 H         0.756154         0.415528         3.540156
 H         2.151342        -2.130447         2.613416
 H         1.332904        -0.720735        -1.557307
 H         0.148269        -0.055445        -0.688252
 H         1.570807         1.142752        -1.170108
 H         3.916966        -1.234339         0.611282
