19
Iteration:   750
 C         2.591454         2.321867         0.685980
 C         2.353077         0.907087         1.277693
 C         2.800026         0.348666         2.627842
 C         2.033967        -0.990114         2.466536
 O         0.524701        -0.533806         2.222723
 C         1.075399        -0.033590         0.969122
 C         0.182016         0.152931        -0.238198
 C         2.161808        -1.075698         0.806342
 O         3.154789        -0.108270         0.406748
 H         2.629349         3.058978         1.598780
 H         3.572486         2.208646         0.333224
 H         1.826262         2.692485         0.004160
 H         3.872020         0.423715         2.696740
 H         2.325978         0.934327         3.537262
 H         2.155393        -1.817499         3.090115
 H        -0.268528        -0.770413        -0.568939
 H        -0.620652         0.909310         0.059743
 H         0.804015         0.541357        -1.006249
 H         2.017904        -2.042515         0.384046
