19
Iteration:  4263charge 0 multiplicity 1
 C         1.317744         2.364693         1.503094
 C         1.974091         0.960180         1.586676
 C         1.777972         0.142044         2.833914
 C         2.033168        -1.177191         2.154951
 O         0.884760        -1.227902         1.232333
 C         1.521320        -0.227711         0.497040
 C         1.013437         0.028807        -0.926559
 C         2.981753        -0.644611         1.002278
 O         3.396945         0.716940         1.298872
 H         0.229097         2.386656         1.461673
 H         1.619090         2.785514         2.451764
 H         1.753348         3.085640         0.775869
 H         2.555014         0.599841         3.466231
 H         0.871465         0.299307         3.338608
 H         2.168675        -2.106585         2.783586
 H         0.062550         0.615974        -0.950169
 H         1.697815         0.690107        -1.435281
 H         0.860947        -0.869889        -1.478741
 H         3.827648        -1.225659         0.606928
