19
Iteration:  1504
 C         2.547576         2.325676         0.861683
 C         2.416027         0.889568         1.160102
 C         2.642774         0.421522         2.630203
 C         1.935480        -0.930349         2.449311
 O         0.634725        -0.554662         2.163898
 C         1.136571        -0.079763         0.875561
 C         0.053622         0.189696        -0.121391
 C         2.258106        -1.100124         0.826881
 O         3.261417        -0.173829         0.354225
 H         1.989598         2.782435         1.685848
 H         3.660324         2.523340         0.954938
 H         2.274748         2.744474        -0.184933
 H         3.768767         0.358409         2.881133
 H         2.144443         1.212584         3.184388
 H         2.062036        -1.735883         3.245522
 H        -0.866373        -0.305156         0.204561
 H        -0.325758         1.203095        -0.305581
 H         0.403237        -0.172694        -1.134939
 H         2.237852        -2.114308         0.328339
