19
Iteration:  2185
 C         2.293795         2.383792         1.012019
 C         2.259361         0.908938         1.311502
 C         2.456510         0.415072         2.770188
 C         2.049076        -1.102530         2.385139
 O         0.602550        -0.790654         1.961558
 C         1.142216        -0.153721         0.768382
 C         0.288515         0.093141        -0.391493
 C         2.512718        -1.000271         0.796400
 O         3.323250         0.176270         0.572833
 H         3.005310         2.950730         1.666443
 H         2.357033         2.672762        -0.018273
 H         1.336425         2.812502         1.430990
 H         3.415389         0.718938         3.102921
 H         1.631179         0.760575         3.440108
 H         2.156812        -1.887339         3.126307
 H        -0.727733         0.242380         0.002702
 H         0.585926         1.046913        -0.850903
 H         0.297483        -0.729468        -1.046183
 H         2.676880        -1.855716         0.106951
