19
Iteration:  2581charge 0 multiplicity 1
 C         2.017578         2.462481         1.297821
 C         2.132857         0.923603         1.382692
 C         2.103709         0.354886         2.757919
 C         2.040953        -1.124748         2.288798
 O         0.680708        -1.048575         1.708854
 C         1.324815        -0.256797         0.589833
 C         0.410321         0.032248        -0.554541
 C         2.827464        -0.859300         0.867887
 O         3.410585         0.423252         0.827440
 H         1.295033         2.741907         0.457264
 H         1.514874         3.171119         2.005385
 H         2.968216         2.927219         1.110223
 H         2.933435         0.799632         3.328336
 H         1.147165         0.477596         3.404185
 H         2.073547        -1.927266         3.011514
 H        -0.279333        -0.801714        -0.719240
 H        -0.172699         0.874238        -0.172974
 H         0.890539         0.402384        -1.610384
 H         3.458796        -1.615606         0.375465
