19
Iteration:  2967
 C         1.681205         2.519041         1.447502
 C         2.014917         0.959109         1.491928
 C         1.945291         0.187052         2.752753
 C         2.096509        -1.142368         2.249694
 O         0.822330        -1.196849         1.470609
 C         1.417123        -0.238679         0.585708
 C         0.761884         0.025077        -0.776759
 C         2.843518        -0.725829         0.970180
 O         3.339548         0.601528         1.018999
 H         1.462762         2.975799         2.379914
 H         2.459681         3.189931         0.995465
 H         0.747097         2.598919         0.837847
 H         2.595511         0.546149         3.564966
 H         0.972934         0.067813         3.188381
 H         2.352921        -1.987438         2.914453
 H         1.581414         0.040588        -1.570098
 H         0.129446        -0.831973        -1.000680
 H         0.099648         0.861023        -0.875472
 H         3.466571        -1.495631         0.416508
