19
Iteration:   965charge 0 multiplicity 1
 C         2.643516         2.262106         0.659600
 C         2.410785         0.873969         1.237752
 C         2.670300         0.432373         2.586589
 C         1.999734        -0.895382         2.453984
 O         0.591513        -0.688617         2.148680
 C         1.071967        -0.106031         0.894094
 C        -0.001032         0.352471        -0.063786
 C         2.216482        -1.071105         0.837091
 O         3.267085        -0.169281         0.470981
 H         2.282353         3.036404         1.309486
 H         3.709206         2.463877         0.501878
 H         2.127911         2.318244        -0.298752
 H         3.758970         0.317843         2.780592
 H         2.133528         0.981386         3.476549
 H         2.267530        -1.595948         3.146817
 H        -0.509742        -0.384943        -0.749631
 H        -0.801562         0.868226         0.464078
 H         0.340168         1.056767        -0.777558
 H         2.379141        -2.086451         0.311894
