19
Iteration:  2571charge 0 multiplicity 1
 C         1.969909         2.529888         1.213325
 C         2.133269         1.006110         1.385383
 C         2.156437         0.281084         2.758018
 C         2.036690        -1.113352         2.318276
 O         0.687816        -1.028199         1.677436
 C         1.383235        -0.341247         0.603534
 C         0.444646         0.045769        -0.501727
 C         2.708905        -0.871121         0.884604
 O         3.385171         0.425614         0.837674
 H         1.615581         2.743578         0.145124
 H         1.372089         2.837476         2.099376
 H         2.983340         2.929457         1.192848
 H         3.022686         0.484861         3.372033
 H         1.145745         0.522664         3.295506
 H         2.285497        -1.978661         2.909434
 H        -0.102433        -0.754060        -0.976909
 H        -0.262887         0.703977        -0.016934
 H         1.001778         0.737832        -1.254746
 H         3.351959        -1.595256         0.390851
