19
Iteration:   319charge 0 multiplicity 1
 C         2.690712         2.152530         0.648218
 C         2.421366         0.872415         1.222821
 C         2.563571         0.425522         2.665093
 C         2.009025        -0.999003         2.347230
 O         0.639291        -0.594415         2.281253
 C         1.072716        -0.004359         0.951133
 C         0.068554         0.252120        -0.131425
 C         2.206274        -1.014824         0.830646
 O         3.197784        -0.090078         0.410643
 H         2.447502         2.881843         1.293887
 H         3.710641         2.442583         0.611354
 H         2.228182         2.185080        -0.289768
 H         3.568833         0.506186         2.992870
 H         1.817678         0.819738         3.323679
 H         2.296034        -1.788234         2.987634
 H        -0.180205        -0.660066        -0.646395
 H        -0.835854         0.821138         0.167575
 H         0.552553         1.003857        -0.842237
 H         2.179901        -2.034979         0.273438
