19
Iteration:  3544charge 0 multiplicity 1
 C         1.591673         2.479402         1.604085
 C         1.829155         0.973692         1.508793
 C         1.596021         0.118489         2.894069
 C         2.028533        -1.186853         2.132684
 O         0.989997        -1.527333         1.171721
 C         1.585346        -0.172209         0.444956
 C         1.092642         0.015077        -0.958653
 C         2.928676        -0.566274         1.066625
 O         3.232734         0.823196         1.328302
 H         0.596368         2.791544         2.063466
 H         2.492981         3.142332         1.781045
 H         1.407653         2.841666         0.566033
 H         2.093575         0.424641         3.771839
 H         0.428208         0.218664         3.153045
 H         2.509700        -1.909151         2.740216
 H         1.611151        -0.685460        -1.533609
 H        -0.030279        -0.172238        -0.893782
 H         1.314221         1.086038        -1.168703
 H         3.770209        -0.974087         0.545386
