19
Iteration:  3489
 C         1.205041         2.213451         1.405607
 C         1.996086         0.980077         1.555589
 C         1.770627         0.079158         2.848059
 C         1.986352        -1.223207         2.169993
 O         0.914019        -1.153729         1.232940
 C         1.557828        -0.132337         0.527802
 C         1.165052         0.150218        -0.954075
 C         2.951421        -0.667532         1.064257
 O         3.424975         0.722476         1.364815
 H         0.084398         1.973797         1.460311
 H         1.346390         2.966735         2.259886
 H         1.324419         2.610901         0.385307
 H         2.413655         0.186252         3.686291
 H         0.654223         0.280526         3.155149
 H         1.980075        -1.998751         2.919730
 H         1.679176        -0.430650        -1.688420
 H         0.103167        -0.208467        -1.104071
 H         1.313184         1.258514        -1.064022
 H         3.683618        -1.090494         0.361034
