19
Iteration:  3639charge 0 multiplicity 1
 C         1.228146         2.295666         1.378167
 C         1.874135         0.924325         1.548136
 C         1.770444         0.045882         2.857099
 C         2.110271        -1.178098         2.191984
 O         0.839169        -1.293192         1.287325
 C         1.550918        -0.198083         0.586849
 C         1.210679         0.240190        -0.834190
 C         2.939928        -0.668847         1.025940
 O         3.371521         0.774469         1.245185
 H         0.227006         2.118551         1.005686
 H         1.355213         3.071458         2.136633
 H         1.788480         2.719397         0.570228
 H         2.412698         0.579604         3.556891
 H         0.768404         0.012906         3.326312
 H         2.387161        -2.168566         2.411663
 H         1.051400        -0.587873        -1.556269
 H         0.419939         1.027716        -0.930317
 H         2.122319         0.841196        -1.133401
 H         3.465312        -1.406929         0.389858
