19
Iteration:  4073charge 0 multiplicity 1
 C         1.473226         2.452678         1.705292
 C         1.917530         1.059706         1.607970
 C         1.793994         0.210363         2.775746
 C         1.944657        -1.159571         2.147698
 O         0.831511        -1.244522         1.227375
 C         1.514636        -0.178069         0.491257
 C         1.009928        -0.186015        -0.969729
 C         2.907152        -0.653568         0.966016
 O         3.460669         0.696643         1.241883
 H         0.466140         2.631505         1.240101
 H         1.256547         2.668955         2.798879
 H         2.193786         3.114189         1.251382
 H         2.499617         0.551572         3.515042
 H         0.717677         0.298923         3.241546
 H         2.389970        -2.017039         2.655729
 H         1.397298        -1.126064        -1.470548
 H        -0.105590        -0.123549        -1.062947
 H         1.471668         0.746177        -1.577332
 H         3.887709        -1.081178         0.543789
