19
Iteration:  4507charge 0 multiplicity 1
 C         1.370378         2.357312         1.563283
 C         1.900896         0.918669         1.629587
 C         1.693165         0.107132         2.839755
 C         2.123851        -1.245906         2.133422
 O         1.040103        -1.271852         1.166309
 C         1.565311        -0.130411         0.447203
 C         0.848085        -0.065342        -0.885784
 C         3.042937        -0.495493         0.971286
 O         3.348237         0.839446         1.328056
 H         0.265016         2.367380         1.497166
 H         1.763972         2.933397         2.466980
 H         1.681202         2.901428         0.658887
 H         2.312038         0.331771         3.700899
 H         0.571739        -0.120481         3.005805
 H         2.349073        -2.033997         2.834867
 H        -0.220559        -0.389550        -0.785048
 H         0.924357         0.946297        -1.381743
 H         1.383976        -0.700558        -1.635997
 H         3.814263        -1.218731         0.679120
