19
Iteration:  1426charge 0 multiplicity 1
 C         2.587977         2.367339         0.613924
 C         2.480535         0.921779         1.209917
 C         2.674793         0.368681         2.742567
 C         1.982918        -0.965941         2.384336
 O         0.597940        -0.634076         2.197061
 C         1.073885        -0.089056         0.895824
 C         0.064469         0.258318        -0.133809
 C         2.205923        -1.071012         0.859994
 O         3.235497        -0.174707         0.451078
 H         2.448933         3.202744         1.322301
 H         3.633745         2.430886         0.368361
 H         1.899562         2.502658        -0.300978
 H         3.656227         0.518871         2.950889
 H         2.037887         0.826344         3.479402
 H         2.020256        -1.654784         3.158925
 H        -0.025867        -0.421098        -0.929997
 H        -0.821547         0.412170         0.410689
 H         0.409458         1.151019        -0.644742
 H         2.128178        -2.078378         0.286600
