19
Iteration:  1748
 C         2.480599         2.271659         0.702116
 C         2.440766         0.871133         1.268029
 C         2.613656         0.369142         2.681657
 C         2.033697        -0.986514         2.458611
 O         0.626036        -0.715136         2.176310
 C         1.110893        -0.015402         0.833071
 C         0.035555         0.283930        -0.255023
 C         2.280948        -1.053808         0.874622
 O         3.285648        -0.045310         0.469783
 H         2.994260         3.020629         1.389598
 H         3.094193         2.399007        -0.206513
 H         1.464483         2.578305         0.581896
 H         3.591899         0.418616         3.163871
 H         1.989579         0.863998         3.495790
 H         2.279426        -1.827366         3.014011
 H         0.113638         1.299091        -0.646210
 H         0.148077        -0.532573        -0.994754
 H        -0.906844         0.445091         0.151873
 H         2.262460        -1.946216         0.299597
