19
Iteration:  1860charge 0 multiplicity 1
 C         2.494119         2.305725         0.866018
 C         2.317409         0.878933         1.324510
 C         2.631084         0.362906         2.693462
 C         2.043465        -0.938383         2.383836
 O         0.629361        -0.628156         2.114015
 C         1.098069        -0.161268         0.888396
 C         0.088135         0.181298        -0.374555
 C         2.341945        -1.053467         0.850520
 O         3.238955         0.016347         0.507224
 H         3.024729         2.229502        -0.077751
 H         1.519502         2.656122         0.523514
 H         2.730440         3.148307         1.550039
 H         3.701221         0.409790         2.861135
 H         2.046295         0.844301         3.526880
 H         2.122415        -1.858390         3.014369
 H        -0.027456        -0.538298        -1.155212
 H        -0.846347         0.514850         0.094776
 H         0.599524         0.954174        -0.856576
 H         2.633429        -2.042169         0.339052
