19
Iteration:   448
 C         2.607645         2.236282         0.757439
 C         2.417214         0.855858         1.239768
 C         2.787279         0.383297         2.691429
 C         2.037768        -0.945391         2.438331
 O         0.578231        -0.508014         2.149498
 C         1.081299        -0.073052         0.864246
 C         0.041520         0.223871        -0.174436
 C         2.217134        -1.089954         0.852383
 O         3.162582        -0.118477         0.418655
 H         1.661339         2.930542         0.950740
 H         3.536395         2.689582         1.148355
 H         2.722110         2.344388        -0.361873
 H         3.877499         0.308301         2.840981
 H         2.273559         0.846768         3.568321
 H         2.030496        -1.698639         3.155754
 H        -0.527105        -0.579659        -0.549087
 H        -0.734063         0.966698         0.210887
 H         0.395194         0.657438        -1.097717
 H         2.199381        -2.094942         0.355948
