19
Iteration:   455charge 0 multiplicity 1
 C         2.642146         2.295038         0.759295
 C         2.409923         0.832113         1.141794
 C         2.725150         0.402392         2.700117
 C         1.990097        -0.987406         2.416235
 O         0.614433        -0.497224         2.137544
 C         1.116299        -0.046166         0.917764
 C         0.014948         0.233763        -0.152788
 C         2.216961        -1.138934         0.865099
 O         3.209882        -0.126810         0.401193
 H         1.747070         2.791053         1.202934
 H         3.500741         2.769725         1.275138
 H         2.553123         2.179972        -0.337868
 H         3.804601         0.484467         2.875046
 H         2.011891         1.041921         3.354700
 H         2.000570        -1.812901         3.202231
 H        -0.474834        -0.755240        -0.427488
 H        -0.701097         0.864039         0.410433
 H         0.405729         0.820558        -0.972761
 H         2.147320        -2.050768         0.364777
