19
Iteration:   850
 C         2.559090         2.242621         0.656870
 C         2.457620         0.858194         1.210471
 C         2.663913         0.353851         2.680791
 C         2.058444        -0.989333         2.399542
 O         0.645427        -0.531512         2.198685
 C         1.058290        -0.002472         0.897693
 C         0.041677         0.310725        -0.096295
 C         2.247656        -1.089081         0.814158
 O         3.169017        -0.146392         0.452843
 H         1.433237         2.573787         0.429959
 H         3.136655         3.013453         1.226842
 H         3.104906         1.979891        -0.310820
 H         3.779646         0.310441         3.083595
 H         2.014043         0.905150         3.395990
 H         2.293214        -1.846985         3.079558
 H        -0.790968        -0.327513         0.084174
 H        -0.212936         1.435007         0.022995
 H         0.512199        -0.039464        -1.058587
 H         2.225398        -1.932466         0.207408
