19
Iteration:  1169charge 0 multiplicity 1
 C         2.567719         2.278874         0.703255
 C         2.468669         0.864814         1.193234
 C         2.720519         0.418067         2.595505
 C         1.976396        -0.965025         2.405895
 O         0.576642        -0.561576         2.117477
 C         1.073620        -0.120128         0.900672
 C        -0.052367         0.346955        -0.081462
 C         2.300741        -1.125635         0.875924
 O         3.292131        -0.159944         0.468402
 H         1.775555         2.853950         1.261976
 H         3.569886         2.764223         1.085138
 H         2.295793         2.342375        -0.371511
 H         3.870193         0.254498         2.780073
 H         2.294700         1.056294         3.318704
 H         1.972464        -1.762803         3.086289
 H        -0.407383        -0.586653        -0.632092
 H        -0.887024         0.641332         0.593426
 H         0.182991         1.144717        -0.878091
 H         2.339926        -2.104169         0.604271
