19
Iteration:  2205
 C         2.210208         2.376142         0.964676
 C         2.271259         1.009034         1.355698
 C         2.444401         0.367151         2.773197
 C         2.062906        -0.998317         2.314390
 O         0.679678        -0.919908         1.983561
 C         1.120798        -0.193930         0.792821
 C         0.291683         0.196972        -0.487426
 C         2.472358        -0.966220         0.819810
 O         3.304508         0.134521         0.660628
 H         3.244598         2.857271         1.069325
 H         1.813664         2.419871        -0.063294
 H         1.702500         3.040624         1.677092
 H         3.421647         0.353697         3.138372
 H         1.753657         0.886993         3.568503
 H         2.335725        -1.872662         2.902840
 H        -0.456078         0.960275        -0.210874
 H         1.044348         0.602533        -1.159241
 H        -0.153958        -0.735734        -0.722181
 H         2.633964        -2.002450         0.435317
