19
Iteration:  2175charge 0 multiplicity 1
 C         2.287049         2.389571         1.077313
 C         2.273071         0.944922         1.274347
 C         2.434431         0.386546         2.658613
 C         2.004187        -1.064655         2.344910
 O         0.598871        -0.773105         1.919493
 C         1.265185        -0.132911         0.857136
 C         0.260049         0.080346        -0.327025
 C         2.513585        -0.995995         0.830701
 O         3.296379         0.161544         0.564962
 H         2.966641         2.826831         1.810477
 H         2.680793         2.604916         0.107599
 H         1.201510         2.757462         1.160378
 H         3.407510         0.552996         3.114701
 H         1.721079         0.894296         3.291302
 H         1.998139        -1.898811         3.026593
 H        -0.723587        -0.198594         0.044588
 H         0.254168         1.051408        -0.888271
 H         0.492145        -0.729574        -0.983730
 H         2.799812        -1.928974         0.309141
