19
Iteration:   870
 C         2.639723         2.286518         0.714614
 C         2.304332         0.856479         1.166161
 C         2.734855         0.441084         2.596517
 C         2.001347        -1.002798         2.446883
 O         0.594186        -0.599104         2.273085
 C         1.061367        -0.106958         0.918632
 C         0.169126         0.289984        -0.115553
 C         2.194316        -1.109818         0.865932
 O         3.164940        -0.097800         0.334263
 H         1.644288         2.852942         0.523448
 H         3.066647         2.683352         1.584640
 H         3.253352         2.253391        -0.178529
 H         3.764537         0.415375         2.569145
 H         2.370185         1.098132         3.417172
 H         2.057092        -1.716457         3.257760
 H        -0.600944        -0.360061        -0.339780
 H        -0.259632         1.305410         0.167321
 H         0.696872         0.340416        -1.031320
 H         2.162115        -2.141983         0.535603
