19
Iteration:  2876charge 0 multiplicity 1
 C         1.745871         2.354996         1.340013
 C         2.061529         0.981721         1.428798
 C         1.996775         0.346040         2.859371
 C         2.041705        -1.110943         2.256827
 O         0.787151        -1.289060         1.488575
 C         1.390358        -0.189793         0.608383
 C         0.712129         0.133499        -0.673024
 C         2.842921        -0.802162         0.939263
 O         3.350522         0.549518         0.968328
 H         0.689177         2.444260         0.783946
 H         1.393255         2.804045         2.293934
 H         2.578090         2.938862         0.824113
 H         2.883476         0.837179         3.382289
 H         1.064140         0.538838         3.473288
 H         2.219034        -2.017745         2.830261
 H        -0.189149         0.777534        -0.602471
 H         1.378039         0.793018        -1.259367
 H         0.536840        -0.881599        -1.152850
 H         3.331804        -1.528490         0.337006
