19
Iteration:  1865charge 0 multiplicity 1
 C         2.477395         2.315394         0.863931
 C         2.307322         0.946654         1.273300
 C         2.629064         0.383602         2.694147
 C         2.052159        -0.996748         2.389125
 O         0.610286        -0.637187         2.132212
 C         1.099892        -0.212683         0.897460
 C         0.131352         0.188840        -0.335149
 C         2.310341        -1.053825         0.806599
 O         3.254912         0.007955         0.539439
 H         2.999396         2.246259        -0.115413
 H         1.463671         2.680393         0.523718
 H         2.900221         3.073467         1.551054
 H         3.702468         0.608005         2.987423
 H         2.032018         0.912827         3.410536
 H         2.213800        -1.932181         2.894045
 H        -0.194213        -0.540849        -1.156784
 H        -0.770515         0.667983         0.068252
 H         0.825548         0.897038        -0.971631
 H         2.460719        -1.964484         0.338511
