19
Iteration:  3780
 C         1.418857         2.379681         1.583465
 C         1.885863         0.961976         1.564773
 C         1.661931         0.158183         2.839757
 C         2.083995        -1.207448         2.215394
 O         0.902608        -1.309031         1.281183
 C         1.483217        -0.290282         0.519257
 C         1.179007         0.118960        -0.966001
 C         3.001818        -0.626123         0.992794
 O         3.281005         0.762261         1.190480
 H         0.421623         2.394811         2.034602
 H         2.173303         2.896898         2.205622
 H         1.461088         2.954806         0.703407
 H         2.280636         0.572571         3.586774
 H         0.634493         0.139442         3.265000
 H         2.075848        -2.120336         2.760117
 H         1.267807        -0.772345        -1.583995
 H         0.189018         0.547348        -1.174581
 H         1.979807         0.866639        -1.251315
 H         3.584602        -1.231262         0.251687
