19
Iteration:   290
 C         2.712575         2.341484         0.738903
 C         2.375092         0.867317         1.128992
 C         2.753508         0.420891         2.617106
 C         2.017950        -0.907890         2.528593
 O         0.565557        -0.649392         2.190632
 C         1.069714        -0.115363         0.895668
 C         0.072852         0.278557        -0.197094
 C         2.199623        -1.131626         0.897331
 O         3.083569        -0.135859         0.396360
 H         2.203624         3.057654         1.531500
 H         3.795303         2.642069         0.984357
 H         2.405795         2.594887        -0.321180
 H         3.869419         0.243972         2.535119
 H         2.420124         0.978698         3.458847
 H         2.170395        -1.610178         3.334293
 H        -0.177049        -0.612241        -0.783092
 H        -0.747592         0.683993         0.274770
 H         0.555573         1.103511        -0.823545
 H         2.258084        -2.127676         0.443142
