19
Iteration:   553charge 0 multiplicity 1
 C         2.532875         2.339176         0.739031
 C         2.453809         0.822383         1.217599
 C         2.689209         0.357633         2.648340
 C         2.057552        -0.944881         2.428384
 O         0.623335        -0.569067         2.238268
 C         1.094584        -0.007196         0.957938
 C         0.126370         0.284847        -0.277807
 C         2.146247        -1.078279         0.850746
 O         3.192111        -0.182051         0.403496
 H         1.905960         2.760028         1.548905
 H         3.571094         2.710432         0.678874
 H         2.108967         2.310133        -0.286702
 H         3.749604         0.374143         2.913664
 H         2.067208         0.879577         3.545966
 H         2.114221        -1.822318         3.159999
 H        -0.588317        -0.613646        -0.140273
 H        -0.477062         1.297205        -0.232348
 H         0.720309         0.277981        -1.216109
 H         2.141212        -2.002714         0.332217
