19
Iteration:  3675charge 0 multiplicity 1
 C         1.332425         2.339037         1.401581
 C         1.905949         0.970588         1.552221
 C         1.750326         0.162765         2.889086
 C         2.019263        -1.218944         2.223338
 O         0.905166        -1.373985         1.184163
 C         1.569858        -0.259841         0.521411
 C         1.109760         0.225335        -0.866634
 C         2.979397        -0.673147         1.015640
 O         3.338056         0.766998         1.290123
 H         0.221193         2.453134         1.336883
 H         1.494614         3.003525         2.299323
 H         1.755127         2.712373         0.453810
 H         2.586616         0.517149         3.465901
 H         0.677187         0.158888         3.358360
 H         2.367257        -2.028024         2.851797
 H         1.164771        -0.377145        -1.762720
 H         0.032904         0.429933        -0.625737
 H         1.743082         1.123077        -1.058473
 H         3.647827        -1.394386         0.589015
