19
Iteration:   521charge 0 multiplicity 1
 C         2.662169         2.235081         0.586371
 C         2.340974         0.866876         1.254061
 C         2.671252         0.362680         2.682313
 C         2.010178        -0.980695         2.435546
 O         0.524182        -0.603637         2.189273
 C         1.031055        -0.075868         0.926411
 C         0.120548         0.290760        -0.092981
 C         2.283766        -1.086307         0.819280
 O         3.253672        -0.033516         0.446601
 H         2.495249         3.219861         1.175947
 H         3.761320         2.318851         0.524297
 H         2.013680         2.285052        -0.333813
 H         3.759382         0.242333         2.675309
 H         1.978749         0.821486         3.537857
 H         2.103139        -1.897259         3.098796
 H        -0.457547        -0.563916        -0.574758
 H        -0.731970         0.923282         0.444099
 H         0.390201         0.867846        -0.951096
 H         2.367760        -1.935389         0.243715
