19
Iteration:  1812
 C         2.508833         2.381799         0.901777
 C         2.426402         0.971268         1.231695
 C         2.569381         0.430158         2.678042
 C         2.031045        -0.981552         2.355689
 O         0.627022        -0.590808         2.115311
 C         1.127406        -0.156989         0.832325
 C         0.011026         0.139105        -0.248336
 C         2.316473        -1.095092         0.813222
 O         3.279402        -0.117633         0.498870
 H         3.542304         2.653926         0.602995
 H         1.854877         2.718334         0.085665
 H         2.152931         2.911729         1.738696
 H         3.614105         0.478978         3.073733
 H         1.887378         0.918531         3.417002
 H         2.215275        -1.737018         3.098076
 H         0.548490        -0.018128        -1.230450
 H        -0.764793        -0.615630        -0.064052
 H        -0.368466         1.216688        -0.348310
 H         2.498689        -2.021360         0.366463
