19
Iteration:  4877charge 0 multiplicity 1
 C         1.136448         2.378068         1.709612
 C         1.792127         1.015954         1.519758
 C         1.840240        -0.000923         2.868742
 C         2.269220        -1.206148         2.090829
 O         1.012070        -1.441587         1.321570
 C         1.551116        -0.264942         0.515770
 C         1.141054         0.037222        -0.839733
 C         2.933209        -0.496563         0.884854
 O         3.228989         0.910691         1.100297
 H         0.061425         2.315103         1.485798
 H         1.124699         2.950563         2.711081
 H         1.509802         3.223799         1.091841
 H         2.683238         0.257384         3.551469
 H         0.937107         0.034716         3.444794
 H         2.580086        -2.229083         2.507680
 H         0.467093         0.928973        -0.795259
 H         1.940852         0.442616        -1.390239
 H         0.687222        -0.755290        -1.367019
 H         3.775864        -0.787552         0.342908
