19
Iteration:  4677
 C         1.389728         2.314611         1.658229
 C         1.862418         0.980876         1.585499
 C         1.713622         0.092890         2.898745
 C         2.179725        -1.129899         2.115779
 O         1.118477        -1.472738         1.207323
 C         1.502385        -0.266648         0.469897
 C         0.988523         0.027148        -0.908013
 C         2.908643        -0.480437         0.956133
 O         3.231681         0.903138         1.210633
 H         0.296166         2.574845         1.240350
 H         1.374646         2.752258         2.681948
 H         1.978829         2.994248         0.965882
 H         2.499985         0.271900         3.658548
 H         0.673014         0.145851         3.187846
 H         2.577539        -1.871478         2.825141
 H         1.697211        -0.099790        -1.653920
 H         0.115128        -0.625977        -1.030611
 H         0.572119         1.059168        -0.828924
 H         3.661491        -1.109535         0.283869
