19
Iteration:  4981charge 0 multiplicity 1
 C         1.402143         2.472342         1.716903
 C         1.780795         0.990154         1.625415
 C         1.735308         0.091149         2.800078
 C         2.264247        -1.189773         2.079128
 O         1.136306        -1.479121         1.146127
 C         1.486176        -0.293226         0.499790
 C         0.817442        -0.046071        -0.912375
 C         2.995993        -0.450750         0.968425
 O         3.254293         0.867429         1.290911
 H         0.407844         2.787395         2.160932
 H         2.196465         3.007599         2.206675
 H         1.181485         2.943349         0.738314
 H         2.470731         0.432228         3.521016
 H         0.692890         0.036309         3.228806
 H         2.675446        -1.977515         2.654296
 H        -0.133362        -0.561054        -1.074520
 H         0.695961         1.065190        -1.149908
 H         1.462446        -0.501725        -1.722623
 H         3.904285        -0.892600         0.451175
