19
Iteration:   393charge 0 multiplicity 1
 C         2.535319         2.218794         0.836578
 C         2.417266         0.801750         1.201837
 C         2.614903         0.461695         2.684549
 C         2.062667        -0.917807         2.409002
 O         0.675264        -0.509308         2.208338
 C         1.103866        -0.075235         0.926433
 C         0.166634         0.311412        -0.153543
 C         2.215033        -1.119030         0.804081
 O         3.159337        -0.231451         0.296406
 H         1.561996         2.830660         1.304649
 H         3.310198         2.953562         1.142697
 H         2.473554         2.302685        -0.297515
 H         3.614720         0.514504         3.120252
 H         1.904448         1.069428         3.379423
 H         2.074069        -1.760255         3.063950
 H        -0.787118        -0.215912        -0.099195
 H        -0.048564         1.505753        -0.186949
 H         0.583643         0.080612        -1.131216
 H         2.142946        -2.177131         0.458737
