19
Iteration:  2766charge 0 multiplicity 1
 C         1.949139         2.419344         1.344975
 C         2.064618         0.932229         1.462434
 C         1.932751         0.348063         2.860282
 C         2.037473        -1.117478         2.321593
 O         0.808413        -1.197905         1.547822
 C         1.337725        -0.210711         0.586243
 C         0.563049        -0.015998        -0.635661
 C         2.778118        -0.751856         0.825102
 O         3.392333         0.564587         0.907174
 H         3.043860         2.774766         1.240877
 H         1.389958         2.736008         0.425573
 H         1.377421         2.791215         2.188227
 H         2.887714         0.650823         3.288443
 H         1.030475         0.708869         3.524608
 H         2.327172        -2.084046         2.755962
 H         1.139609        -0.459993        -1.420031
 H        -0.488418        -0.359077        -0.472045
 H         0.460860         1.123930        -0.917880
 H         3.245068        -1.554768         0.263085
