19
Iteration:  1417
 C         2.635463         2.303927         0.676907
 C         2.416345         0.890273         1.190341
 C         2.648118         0.419946         2.647612
 C         1.983671        -0.952714         2.518751
 O         0.637018        -0.616410         2.155073
 C         1.077569        -0.077239         0.904592
 C        -0.017273         0.292915        -0.162586
 C         2.219758        -1.082212         0.801800
 O         3.265920        -0.161288         0.467756
 H         2.235557         2.909911         1.492102
 H         3.665271         2.582806         0.405790
 H         2.016601         2.526361        -0.245774
 H         3.740783         0.276738         2.895500
 H         2.252416         0.922078         3.442958
 H         2.087613        -1.755337         3.252134
 H         0.069470        -0.610849        -0.732817
 H        -0.991901         0.350719         0.246279
 H         0.228138         1.242347        -0.672621
 H         2.252894        -2.104824         0.364068
