19
Iteration:  1511charge 0 multiplicity 1
 C         2.552015         2.275073         0.863726
 C         2.382990         0.840057         1.206419
 C         2.632825         0.425956         2.652194
 C         1.980372        -0.952763         2.464743
 O         0.639956        -0.530149         2.188642
 C         1.142048        -0.073598         0.845120
 C         0.066184         0.195910        -0.154755
 C         2.242265        -1.037851         0.799909
 O         3.259001        -0.164741         0.336417
 H         1.956911         2.902976         1.537026
 H         3.577046         2.475219         1.080436
 H         2.384578         2.583276        -0.173673
 H         3.670596         0.510019         2.699840
 H         2.194444         1.240548         3.435156
 H         2.030995        -1.718189         3.171443
 H        -0.722841        -0.372869         0.337330
 H        -0.311703         1.227528        -0.473394
 H         0.242050        -0.293234        -1.125073
 H         2.180332        -2.074663         0.319589
