19
Iteration:    36
 C         2.555772         2.203637         0.651036
 C         2.491812         0.852754         1.245939
 C         2.733007         0.401729         2.640981
 C         2.003060        -0.974413         2.415936
 O         0.636475        -0.493651         2.088390
 C         1.153937         0.003789         0.828984
 C        -0.077896         0.327860        -0.013294
 C         2.219982        -1.068383         0.812735
 O         3.254852        -0.232016         0.520767
 H         1.752665         2.793899         0.970295
 H         3.445800         2.776437         0.794145
 H         2.459440         1.996635        -0.352482
 H         3.710025         0.344427         2.876039
 H         2.192894         0.974097         3.404131
 H         1.991101        -1.850830         3.158752
 H        -0.405092        -0.642948        -0.546476
 H        -0.779724         0.501380         0.763840
 H        -0.120169         1.297431        -0.731005
 H         2.111661        -2.105423         0.269029
