19
Iteration:    62charge 0 multiplicity 1
 C         2.645327         2.255672         0.637752
 C         2.383699         0.835941         1.103339
 C         2.677355         0.397963         2.572510
 C         2.021185        -0.978260         2.473069
 O         0.554099        -0.582510         2.249221
 C         1.017873        -0.160533         0.924636
 C         0.008840         0.405421        -0.096257
 C         2.309446        -1.098313         0.882837
 O         3.223892        -0.130819         0.434759
 H         1.986019         3.054324         1.078863
 H         3.620230         2.579727         1.066196
 H         2.782079         2.216815        -0.496291
 H         3.854906         0.218832         2.711521
 H         2.412182         1.031194         3.420049
 H         2.130534        -1.809029         3.113219
 H        -0.181524        -0.337794        -0.882806
 H        -1.016632         0.605251         0.469793
 H         0.339307         1.436216        -0.468396
 H         2.420595        -2.044777         0.412493
