19
Iteration:   686
 C         2.601966         2.294609         0.732604
 C         2.403233         0.868850         1.123729
 C         2.599119         0.487573         2.575071
 C         1.999617        -0.950890         2.419320
 O         0.653224        -0.624911         2.174918
 C         1.112033        -0.089432         0.874386
 C         0.004814         0.334236        -0.095282
 C         2.190290        -1.148116         0.899682
 O         3.316785        -0.241112         0.441039
 H         2.421356         2.984531         1.657675
 H         3.607967         2.604394         0.608519
 H         1.999510         2.792231        -0.025666
 H         3.661490         0.592561         3.017007
 H         1.767791         1.091819         3.163047
 H         2.166822        -1.685041         3.128879
 H        -0.270439        -0.489642        -0.743002
 H        -0.921401         0.770432         0.568686
 H         0.354960         1.124661        -0.778792
 H         2.330678        -2.067031         0.531213
