19
Iteration:  1236
 C         2.615348         2.270741         0.750282
 C         2.407902         0.888403         1.301364
 C         2.730693         0.377991         2.650070
 C         1.973059        -1.004776         2.424092
 O         0.634535        -0.614075         2.212414
 C         1.068317        -0.021675         0.877695
 C         0.125173         0.135566        -0.241533
 C         2.132093        -0.970691         0.831057
 O         3.171075        -0.066288         0.420187
 H         2.498915         3.095426         1.551085
 H         3.752303         2.307982         0.475900
 H         1.945733         2.579219        -0.066279
 H         3.851193         0.287880         2.676324
 H         2.331296         0.990047         3.533959
 H         2.156527        -1.722107         3.300930
 H        -0.758396        -0.524577         0.077601
 H        -0.253077         1.179020        -0.384069
 H         0.409550        -0.120479        -1.265486
 H         2.107973        -1.855468         0.206538
