19
Iteration:  2082charge 0 multiplicity 1
 C         2.366768         2.346773         0.881042
 C         2.350878         0.913335         1.328219
 C         2.410526         0.405700         2.752568
 C         2.070884        -0.975191         2.385870
 O         0.645238        -0.901029         2.028286
 C         1.108243        -0.205396         0.778757
 C         0.183568         0.255880        -0.350261
 C         2.452848        -0.976803         0.860197
 O         3.297151         0.100207         0.533529
 H         1.335619         2.742555         1.119579
 H         3.010605         3.109212         1.512266
 H         2.538514         2.539566        -0.180602
 H         3.513969         0.473410         3.121298
 H         1.802052         0.834034         3.548356
 H         2.409141        -1.887748         2.875216
 H         0.529506        -0.233231        -1.257095
 H        -0.772050        -0.011128         0.032534
 H         0.264477         1.410074        -0.404871
 H         2.536351        -1.905137         0.346689
