19
Iteration:  1391charge 0 multiplicity 1
 C         2.626385         2.256651         0.853859
 C         2.348858         0.847832         1.143997
 C         2.733004         0.460095         2.566972
 C         1.973811        -0.882132         2.405843
 O         0.589638        -0.465091         2.150020
 C         1.104470        -0.180978         0.813406
 C         0.006787         0.211313        -0.113734
 C         2.251532        -1.137176         0.906298
 O         3.249623        -0.126219         0.385368
 H         1.920185         2.804690         1.526389
 H         3.666269         2.418037         1.160611
 H         2.680435         2.595372        -0.206526
 H         3.736714         0.427453         2.777193
 H         2.139361         0.813200         3.513262
 H         1.994570        -1.686611         3.147208
 H        -0.183734        -0.621511        -0.752156
 H        -0.899481         0.256299         0.546757
 H         0.153888         1.206886        -0.462508
 H         2.391863        -2.219367         0.594639
