19
Iteration:  3453charge 0 multiplicity 1
 C         1.304917         2.360295         1.536258
 C         1.856379         0.963218         1.500425
 C         1.725239         0.157283         2.839261
 C         2.007831        -1.196609         2.189105
 O         0.953946        -1.309803         1.174651
 C         1.622882        -0.226999         0.483420
 C         1.160731         0.091520        -0.908486
 C         2.965882        -0.626394         1.075009
 O         3.283322         0.748975         1.304782
 H         0.372017         2.406063         0.963504
 H         1.177462         2.747645         2.571269
 H         2.098905         3.048520         1.139710
 H         2.557240         0.384743         3.626966
 H         0.780331         0.172710         3.325078
 H         2.178158        -2.067891         2.853630
 H         1.280450        -0.714362        -1.685549
 H         0.192545         0.538122        -0.927744
 H         1.752399         0.928358        -1.286536
 H         3.671052        -1.298301         0.504097
