19
Iteration:  3115charge 0 multiplicity 1
 C         1.576226         2.458088         1.463607
 C         1.851248         0.994381         1.560580
 C         1.777883         0.120847         2.841752
 C         2.127305        -1.141152         2.214579
 O         0.902266        -1.310738         1.393329
 C         1.427643        -0.184433         0.571751
 C         0.881594        -0.032177        -0.877684
 C         2.903901        -0.648842         0.906944
 O         3.400067         0.736252         1.137609
 H         1.545256         2.682230         0.383195
 H         0.690012         2.700452         2.032069
 H         2.395110         3.077888         1.917014
 H         2.644480         0.441069         3.581582
 H         0.883234         0.144187         3.453746
 H         2.271670        -1.983783         2.877357
 H         0.094359         0.805751        -1.092762
 H         1.680112         0.247569        -1.605194
 H         0.411537        -1.044570        -1.159817
 H         3.580477        -1.237417         0.278454
