19
Iteration:  3394
 C         1.462362         2.453473         1.524334
 C         1.849695         0.985936         1.582349
 C         1.591380         0.131848         2.856072
 C         2.027587        -1.252337         2.118670
 O         0.973571        -1.440633         1.154721
 C         1.620376        -0.180987         0.464036
 C         0.948048        -0.031393        -0.990023
 C         3.089191        -0.488270         1.077954
 O         3.317669         0.831915         1.432190
 H         1.101877         2.774589         0.550741
 H         0.863180         2.713518         2.374819
 H         2.366990         3.009467         1.519284
 H         2.380115         0.328470         3.549897
 H         0.498503         0.029341         3.212343
 H         2.287456        -2.179216         2.683834
 H         0.309888        -0.867732        -1.181071
 H         0.382609         0.968909        -1.082938
 H         1.795178        -0.097183        -1.739578
 H         3.876063        -0.917789         0.463420
