19
Iteration:  3188
 C         1.417445         2.366474         1.418047
 C         1.958039         0.944040         1.553394
 C         1.815506         0.163567         2.796295
 C         2.133596        -1.133990         2.191249
 O         0.889477        -1.312933         1.332583
 C         1.484486        -0.293552         0.552546
 C         1.059127         0.139402        -0.753147
 C         2.891445        -0.641437         0.910124
 O         3.272647         0.738965         1.201193
 H         0.270506         2.314419         1.550617
 H         1.824456         3.057417         2.167216
 H         1.571780         2.742509         0.395800
 H         2.445421         0.680261         3.424842
 H         0.828547        -0.008569         3.302071
 H         2.533280        -1.981339         2.808425
 H         1.839847         0.324526        -1.380934
 H         0.580107        -0.753177        -1.160765
 H         0.347112         0.975658        -0.693567
 H         3.632616        -1.261936         0.362029
