19
Iteration:  3099charge 0 multiplicity 1
 C         1.673046         2.439024         1.472320
 C         1.922734         0.965107         1.541775
 C         1.851398         0.290859         2.913240
 C         2.066831        -1.157621         2.187792
 O         0.929273        -1.411917         1.325251
 C         1.448051        -0.263514         0.524894
 C         0.852975        -0.012394        -0.834840
 C         2.867090        -0.578826         0.947514
 O         3.252159         0.732258         1.128463
 H         2.071223         2.886529         0.551385
 H         0.599579         2.712935         1.568405
 H         2.297143         2.860401         2.252586
 H         2.575847         0.602058         3.589269
 H         0.816990         0.285128         3.319648
 H         2.425773        -2.027146         2.770084
 H        -0.116643         0.379705        -0.753567
 H         1.502659         0.706752        -1.338867
 H         0.824396        -0.920773        -1.389047
 H         3.493941        -1.364144         0.473530
