19
Iteration:  2243charge 0 multiplicity 1
 C         2.192483         2.415214         0.963445
 C         2.264186         0.889554         1.414313
 C         2.346977         0.353831         2.782389
 C         1.981546        -1.026383         2.333992
 O         0.666201        -0.836707         1.893882
 C         1.256056        -0.237385         0.759500
 C         0.303828         0.124299        -0.365872
 C         2.560196        -0.932869         0.821765
 O         3.353240         0.208199         0.595733
 H         2.950764         2.640404         0.247450
 H         1.199489         2.717911         0.566705
 H         2.291418         2.992573         1.888818
 H         3.373654         0.319544         3.307455
 H         1.627934         0.738429         3.433178
 H         2.140570        -1.837145         3.078596
 H         0.328473         1.164728        -0.666711
 H         0.236919        -0.485326        -1.289434
 H        -0.758003         0.026580         0.061350
 H         3.011967        -1.819791         0.360485
