19
Iteration:  2528
 C         1.935333         2.401928         1.093969
 C         2.142348         0.916868         1.459540
 C         2.249652         0.255580         2.875770
 C         2.112931        -1.110363         2.249545
 O         0.700512        -1.027873         1.825205
 C         1.260149        -0.198420         0.721372
 C         0.539490         0.142853        -0.647541
 C         2.608572        -0.840256         0.816281
 O         3.365829         0.418382         0.829794
 H         2.556105         2.748470         0.179979
 H         0.860792         2.611306         0.835103
 H         2.262718         3.166723         1.791578
 H         3.193609         0.357211         3.366957
 H         1.395955         0.502369         3.607486
 H         2.288262        -2.007133         2.822353
 H         0.946046        -0.426401        -1.435478
 H        -0.482629        -0.137643        -0.596746
 H         0.456378         1.247474        -0.710918
 H         2.858298        -1.690985         0.177733
