19
Iteration:  4365charge 0 multiplicity 1
 C         1.446626         2.459536         1.767186
 C         1.895223         1.022615         1.482392
 C         1.703229         0.096346         2.863277
 C         2.063865        -1.168830         2.091605
 O         0.911561        -1.296176         1.203032
 C         1.580899        -0.251859         0.485647
 C         1.060939        -0.174928        -0.912793
 C         2.958129        -0.544949         0.934139
 O         3.287618         0.851620         1.271471
 H         0.333203         2.481324         1.978608
 H         2.178004         2.974611         2.452959
 H         1.633181         2.971130         0.825128
 H         2.405408         0.411596         3.658338
 H         0.591136         0.167201         3.033687
 H         2.494838        -1.962994         2.625287
 H         1.775065         0.067962        -1.662639
 H         0.557699        -1.115754        -1.141993
 H         0.219904         0.539116        -1.039309
 H         3.701587        -1.228698         0.474819
