19
Iteration:  3988
 C         1.397631         2.304565         1.329904
 C         1.847285         0.922883         1.558621
 C         1.747685         0.190486         2.894246
 C         2.039590        -1.197577         2.205964
 O         0.914689        -1.357182         1.250072
 C         1.494505        -0.242796         0.505112
 C         1.108138         0.323414        -0.783853
 C         3.012060        -0.703889         1.010177
 O         3.316396         0.702801         1.234027
 H         0.303418         2.422054         1.455428
 H         2.026200         3.056214         1.906363
 H         1.646256         2.618046         0.302150
 H         2.430514         0.622050         3.572649
 H         0.743560        -0.112608         3.355398
 H         2.212062        -2.081604         2.893886
 H         0.837459        -0.374209        -1.496241
 H         0.178037         0.793124        -0.479766
 H         1.863748         1.018106        -1.117087
 H         3.881314        -1.221563         0.555881
