19
Iteration:  2472
 C         2.067805         2.531317         1.289456
 C         2.250208         0.942730         1.379447
 C         2.270011         0.441161         2.813055
 C         2.079221        -1.040934         2.287330
 O         0.664646        -1.031049         1.747825
 C         1.230614        -0.226170         0.649605
 C         0.354678        -0.021705        -0.600175
 C         2.624202        -0.876830         0.811705
 O         3.392594         0.275504         0.797644
 H         2.983849         3.144360         1.474388
 H         1.454034         2.894406         0.411355
 H         1.338674         2.621572         2.096096
 H         3.255831         0.593701         3.273785
 H         1.376714         0.808828         3.336128
 H         2.228570        -1.930615         2.891586
 H         0.710737         0.857678        -1.095282
 H         0.501812        -0.874961        -1.184416
 H        -0.724798         0.182019        -0.479821
 H         3.017785        -1.768558         0.320125
