19
Iteration:  1447
 C         2.593886         2.195285         0.597446
 C         2.395790         0.871681         1.222650
 C         2.610173         0.384006         2.662972
 C         2.045738        -1.044843         2.453714
 O         0.570997        -0.589259         2.166624
 C         1.105905        -0.059184         0.967356
 C         0.149248         0.340532        -0.115477
 C         2.243442        -1.060850         0.835945
 O         3.186705        -0.046611         0.444535
 H         2.507915         3.008406         1.341537
 H         3.561812         2.279486         0.144207
 H         1.686823         2.338508        -0.082893
 H         3.613771         0.414606         2.955022
 H         1.993339         0.956609         3.438980
 H         2.183938        -1.885662         3.084637
 H         0.052127        -0.571626        -0.613540
 H        -0.745313         0.653258         0.404941
 H         0.560420         0.998310        -0.894308
 H         2.296171        -2.098125         0.291975
