19
Iteration:   157
 C         2.568471         2.230134         0.777335
 C         2.504431         0.803682         1.234997
 C         2.719829         0.428999         2.612886
 C         1.965562        -0.935536         2.400065
 O         0.629935        -0.531589         2.159248
 C         1.088031        -0.032793         0.873825
 C        -0.023675         0.283896        -0.096195
 C         2.193124        -1.121756         0.849262
 O         3.257340        -0.138045         0.388920
 H         2.174737         2.871072         1.532951
 H         3.581532         2.612285         0.689459
 H         2.107551         2.298903        -0.172577
 H         3.675945         0.278378         3.003965
 H         2.229576         1.085781         3.299441
 H         2.152339        -1.742474         3.146569
 H        -0.665964        -0.575990        -0.036393
 H        -0.561945         1.086779         0.131025
 H         0.345715         0.494630        -1.147503
 H         2.144912        -2.137125         0.294972
