19
Iteration:  4684charge 0 multiplicity 1
 C         1.345038         2.352398         1.668645
 C         1.828212         0.949072         1.598204
 C         1.761954         0.106695         2.879649
 C         2.152711        -1.140391         2.176769
 O         1.033050        -1.475131         1.205877
 C         1.552533        -0.209550         0.426535
 C         1.023948        -0.005881        -0.861439
 C         2.975151        -0.482889         0.889865
 O         3.242089         0.921117         1.174474
 H         0.321147         2.479981         1.496234
 H         1.270250         2.607146         2.725430
 H         1.998867         3.088637         1.163055
 H         2.470993         0.478399         3.678963
 H         0.748893         0.036272         3.295155
 H         2.432404        -2.122825         2.639439
 H         1.746140        -0.325795        -1.670316
 H         0.157050        -0.667453        -0.922991
 H         0.684484         1.041712        -0.964272
 H         3.680601        -1.140355         0.462979
