19
Iteration:   860
 C         2.578329         2.218185         0.688152
 C         2.355686         0.836786         1.184802
 C         2.681472         0.371769         2.588506
 C         2.039999        -0.972186         2.432008
 O         0.618124        -0.557635         2.209992
 C         1.115299        -0.055391         1.006456
 C         0.121452         0.315093        -0.108469
 C         2.222116        -1.116790         0.855844
 O         3.146949        -0.092364         0.395669
 H         1.677385         2.886822         0.358784
 H         3.160350         2.834086         1.380843
 H         3.226292         2.195254        -0.217320
 H         3.761079         0.410792         2.768750
 H         2.101601         0.879946         3.387370
 H         2.148907        -1.798949         3.147166
 H        -0.685777        -0.344537        -0.009424
 H        -0.310948         1.373769        -0.131611
 H         0.606514         0.241859        -1.085007
 H         2.264033        -2.013503         0.287878
