19
Iteration:  1584
 C         2.556264         2.214947         0.773600
 C         2.408655         0.820497         1.107552
 C         2.616626         0.452450         2.664098
 C         2.019133        -0.968356         2.401531
 O         0.679050        -0.553321         2.165669
 C         1.105456        -0.129031         0.892189
 C         0.034910         0.354296        -0.085920
 C         2.293957        -1.149831         0.806157
 O         3.204085        -0.115378         0.470750
 H         1.491858         2.576555         0.489855
 H         2.895141         2.911595         1.619970
 H         3.065138         2.252938        -0.187054
 H         3.703064         0.617279         2.914983
 H         2.017997         1.046693         3.332750
 H         2.090546        -1.828555         3.053589
 H        -1.017887         0.257625         0.309629
 H         0.315098         1.401858        -0.394252
 H        -0.131524        -0.229369        -1.011614
 H         2.591536        -2.014535         0.321040
