19
Iteration:  2426
 C         2.170371         2.432392         1.129345
 C         2.243552         0.971375         1.468067
 C         2.284088         0.377297         2.850821
 C         2.051054        -1.077279         2.308860
 O         0.682350        -1.057907         1.700919
 C         1.176920        -0.216089         0.746003
 C         0.320681         0.002646        -0.535261
 C         2.603976        -0.790813         0.792063
 O         3.334524         0.369001         0.767921
 H         2.478109         3.046798         1.931877
 H         2.862543         2.592561         0.291067
 H         1.237986         2.880166         0.695960
 H         3.295356         0.326856         3.400591
 H         1.444974         0.539482         3.454997
 H         2.101699        -1.850332         3.116047
 H        -0.312084         0.857628        -0.441305
 H         1.117408         0.188411        -1.266435
 H        -0.243079        -0.876840        -0.767449
 H         3.112013        -1.637811         0.302142
