19
Iteration:  3912charge 0 multiplicity 1
 C         1.612946         2.476151         1.680727
 C         1.832928         1.048318         1.577089
 C         1.739756         0.133479         2.801754
 C         2.058841        -1.182750         2.141620
 O         0.828379        -1.322275         1.235890
 C         1.532879        -0.210967         0.414247
 C         1.103402        -0.162982        -0.953896
 C         2.969251        -0.609878         0.968531
 O         3.214828         0.844594         1.296737
 H         0.705556         2.604038         2.327026
 H         2.482134         2.836835         2.331042
 H         1.457695         2.987770         0.740061
 H         2.397539         0.289152         3.590479
 H         0.640319         0.217078         3.121644
 H         2.177028        -2.106806         2.736902
 H         1.430397        -1.050272        -1.388429
 H         0.020146        -0.146736        -1.070842
 H         1.684969         0.648597        -1.396578
 H         3.688756        -1.085177         0.260689
