19
Iteration:  1990
 C         2.488187         2.442302         0.952398
 C         2.172585         0.912282         1.248453
 C         2.570154         0.437790         2.699760
 C         2.071912        -1.026864         2.354135
 O         0.581636        -0.791256         2.095027
 C         1.164842        -0.166595         0.828874
 C         0.217608         0.125868        -0.366283
 C         2.333025        -1.056697         0.888604
 O         3.250948         0.095851         0.517628
 H         1.809533         3.133178         0.462320
 H         2.658859         2.909401         1.911875
 H         3.356265         2.439684         0.261338
 H         3.649821         0.652629         2.949234
 H         1.859660         0.798832         3.527551
 H         2.259775        -1.822245         3.125917
 H         0.079947         1.239176        -0.551495
 H         0.625228        -0.422493        -1.325151
 H        -0.748170        -0.392267        -0.330323
 H         2.471329        -1.991115         0.237958
