19
Iteration:  4939charge 0 multiplicity 1
 C         1.155590         2.319749         1.508028
 C         1.836124         0.991231         1.581079
 C         1.823580         0.025212         2.800149
 C         2.275298        -1.229005         2.081580
 O         1.040323        -1.345827         1.141178
 C         1.519293        -0.129066         0.538437
 C         0.783963         0.066281        -0.712835
 C         3.140287        -0.567899         0.982531
 O         3.383546         0.888929         1.308000
 H         0.081245         2.152636         1.254310
 H         1.288585         2.961827         2.361515
 H         1.632417         2.675818         0.640532
 H         2.425762         0.471878         3.570973
 H         0.780738        -0.192938         3.147429
 H         2.354521        -2.232005         2.510172
 H        -0.310814         0.012630        -0.523676
 H         1.125534         1.033370        -1.180257
 H         1.072519        -0.726700        -1.408952
 H         3.955572        -1.114754         0.430311
