19
Iteration:  2562charge 0 multiplicity 1
 C         1.969126         2.481367         1.135405
 C         2.164129         0.995684         1.375199
 C         2.164399         0.329720         2.863828
 C         2.044651        -1.090038         2.260720
 O         0.725651        -1.072150         1.629321
 C         1.285521        -0.285594         0.669742
 C         0.480292         0.083599        -0.468797
 C         2.716408        -0.896512         0.858462
 O         3.367628         0.413887         0.848281
 H         1.557550         2.840245         0.123003
 H         1.207288         2.843920         1.875124
 H         2.868329         2.982670         1.526813
 H         3.099442         0.410549         3.358840
 H         1.335626         0.712409         3.538607
 H         2.267511        -1.956951         2.884709
 H         0.278152        -0.695481        -1.168053
 H        -0.443201         0.452064        -0.040094
 H         1.049250         0.774579        -1.081492
 H         2.973370        -1.814674         0.339522
