19
Iteration:  4667
 C         1.380584         2.428028         1.589991
 C         1.834702         0.967479         1.642833
 C         1.687376         0.105916         2.833793
 C         2.221764        -1.166335         2.139793
 O         1.156627        -1.497360         1.204522
 C         1.491645        -0.288155         0.549781
 C         0.895650         0.075255        -0.916312
 C         2.950263        -0.478647         0.941236
 O         3.243379         0.844570         1.265818
 H         0.297860         2.340105         1.119425
 H         1.558889         2.953622         2.550546
 H         2.098594         2.862946         0.869849
 H         2.287932         0.421209         3.694964
 H         0.676424        -0.032523         3.248497
 H         2.689031        -2.023375         2.645627
 H         1.651794         0.161084        -1.644018
 H         0.147095        -0.611554        -1.361748
 H         0.469436         1.103977        -0.958943
 H         3.767557        -1.014704         0.276643
