19
Iteration:   524charge 0 multiplicity 1
 C         2.644516         2.246664         0.582598
 C         2.356676         0.859986         1.259930
 C         2.656569         0.381648         2.690400
 C         2.015158        -1.016614         2.427348
 O         0.523975        -0.589533         2.192764
 C         1.049477        -0.084470         0.948844
 C         0.138058         0.280450        -0.092418
 C         2.244440        -1.060508         0.807943
 O         3.254385        -0.033774         0.444390
 H         2.472159         3.229063         1.219970
 H         3.720077         2.264051         0.502805
 H         2.043322         2.196905        -0.327240
 H         3.761898         0.293671         2.669868
 H         2.036986         0.818209         3.469053
 H         2.081244        -1.876255         2.963239
 H        -0.350572        -0.562288        -0.465117
 H        -0.683827         0.926884         0.358178
 H         0.494299         0.808197        -0.935685
 H         2.275669        -1.972072         0.202404
