19
Iteration:  2929
 C         1.766453         2.411285         1.351730
 C         1.965293         1.016477         1.535639
 C         1.982517         0.198947         2.841579
 C         2.015235        -1.124290         2.252570
 O         0.848258        -1.189491         1.381998
 C         1.428132        -0.177550         0.565669
 C         0.626468        -0.068049        -0.721312
 C         2.836303        -0.654908         0.853726
 O         3.397014         0.606094         1.150007
 H         0.944053         2.798363         2.089961
 H         2.761333         2.873998         1.527458
 H         1.602982         2.592647         0.256433
 H         2.896106         0.468505         3.394293
 H         0.997209         0.481289         3.355167
 H         2.186499        -1.994032         2.884666
 H         0.728950         0.801934        -1.307562
 H         1.192667        -0.847359        -1.257540
 H        -0.497052        -0.237599        -0.579806
 H         3.400301        -1.382425         0.308628
