19
Iteration:  3330
 C         1.290055         2.284255         1.403758
 C         1.898223         0.947358         1.652634
 C         1.814867         0.121385         2.909794
 C         2.122635        -1.168434         2.212400
 O         0.810964        -1.353535         1.260186
 C         1.516524        -0.260904         0.537084
 C         1.240873         0.168758        -0.918639
 C         2.960574        -0.564778         0.961169
 O         3.239812         0.772593         1.244001
 H         1.947045         2.894038         0.763519
 H         0.393366         2.181316         0.811229
 H         1.097603         2.817535         2.326199
 H         2.523687         0.449872         3.652290
 H         0.883269         0.147071         3.473326
 H         2.500001        -2.089905         2.716192
 H         0.482778        -0.363986        -1.399402
 H         0.856868         1.188873        -1.042786
 H         2.179988         0.093077        -1.480178
 H         3.774299        -0.916484         0.356240
