19
Iteration:  1878charge 0 multiplicity 1
 C         2.432265         2.393325         0.792647
 C         2.330847         0.862246         1.236150
 C         2.559184         0.463377         2.681297
 C         2.066918        -1.058172         2.368189
 O         0.597463        -0.721408         2.150940
 C         1.070604        -0.137376         0.855371
 C         0.244202         0.217515        -0.243991
 C         2.300902        -1.046530         0.810638
 O         3.265688        -0.021372         0.542568
 H         2.987793         2.497333        -0.185798
 H         1.504447         2.995684         0.800325
 H         3.038873         2.851743         1.558111
 H         3.611784         0.531567         2.950337
 H         1.814339         0.849159         3.471799
 H         2.211375        -1.835086         3.091837
 H        -0.302132        -0.735926        -0.571608
 H        -0.464488         1.082116         0.045824
 H         0.910687         0.679564        -1.089303
 H         2.383938        -1.932788         0.173104
