19
Iteration:  1711
 C         2.484140         2.430227         0.784946
 C         2.393862         0.889492         1.131941
 C         2.634745         0.302348         2.664143
 C         1.969801        -0.983301         2.457881
 O         0.612417        -0.590596         2.118927
 C         1.201238        -0.120536         0.831577
 C         0.052901         0.253312        -0.144474
 C         2.333886        -1.150741         0.883488
 O         3.243130        -0.078307         0.474156
 H         2.467429         3.015047         1.644144
 H         3.303251         2.605577         0.122990
 H         1.605937         2.713575         0.198758
 H         3.733034         0.352839         2.815619
 H         2.035524         0.878967         3.277240
 H         2.163400        -1.824300         3.210498
 H         0.133546         1.305670        -0.296563
 H         0.074627        -0.075831        -1.145507
 H        -0.876809        -0.145999         0.310293
 H         2.395064        -2.137995         0.400009
