19
Iteration:   985charge 0 multiplicity 1
 C         2.646454         2.235216         0.662870
 C         2.328908         0.810661         1.103563
 C         2.546895         0.504082         2.638351
 C         2.047296        -1.038389         2.427811
 O         0.634306        -0.641251         2.197077
 C         1.094459        -0.139266         0.950446
 C         0.153427         0.404197        -0.054359
 C         2.258946        -1.128640         0.878014
 O         3.159949        -0.099802         0.377245
 H         2.551246         2.949564         1.484342
 H         3.775196         2.301208         0.550882
 H         2.063682         2.796305        -0.042240
 H         3.618681         0.685606         3.060691
 H         1.803457         1.126242         3.215428
 H         2.155147        -1.774496         3.118784
 H        -0.575148        -0.387081        -0.476432
 H        -0.424739         1.135284         0.469882
 H         0.599503         0.811703        -0.953759
 H         2.371641        -2.133976         0.441119
