19
Iteration:  2420
 C         2.132476         2.524819         1.104789
 C         2.222337         0.997217         1.486017
 C         2.317437         0.348096         2.842148
 C         2.075158        -1.066765         2.300185
 O         0.678862        -1.061806         1.714060
 C         1.194138        -0.219582         0.700175
 C         0.329981         0.005813        -0.513670
 C         2.580777        -0.839615         0.790211
 O         3.362778         0.314003         0.791585
 H         2.416213         3.230686         1.985029
 H         2.984999         2.603833         0.374349
 H         1.181142         2.752114         0.634883
 H         3.212082         0.409912         3.399398
 H         1.401873         0.560775         3.519388
 H         2.099877        -1.793702         3.100810
 H        -0.448912         0.803559        -0.315107
 H         1.048382         0.420244        -1.247279
 H        -0.222015        -0.868806        -1.029316
 H         3.008349        -1.718010         0.307438
