19
Iteration:  1783charge 0 multiplicity 1
 C         2.560365         2.278316         0.813019
 C         2.285744         0.897634         1.245460
 C         2.592121         0.462801         2.601889
 C         2.009366        -0.943318         2.420253
 O         0.583075        -0.696875         2.122991
 C         1.155007        -0.144674         0.861113
 C         0.128138         0.210965        -0.182893
 C         2.313551        -1.052079         0.868092
 O         3.235510        -0.001611         0.455117
 H         3.565592         2.488835         1.299465
 H         2.509939         2.351706        -0.284180
 H         1.904121         3.062629         1.279118
 H         3.635596         0.320358         2.701167
 H         1.988252         0.943275         3.463754
 H         2.212921        -1.710627         3.196332
 H         0.691467         0.659818        -1.004289
 H        -0.366256        -0.677933        -0.689700
 H        -0.686411         0.687644         0.309121
 H         2.479669        -2.027267         0.296657
