19
Iteration:  1599
 C         2.483417         2.335499         0.720957
 C         2.366286         0.812421         1.203893
 C         2.608994         0.365185         2.584578
 C         2.051223        -1.001204         2.442637
 O         0.614472        -0.485023         2.234206
 C         1.080239        -0.154754         0.818138
 C        -0.035576         0.345615        -0.109705
 C         2.358271        -1.144170         0.811969
 O         3.364813        -0.159142         0.442660
 H         1.563616         2.802872         0.567594
 H         3.003118         2.800248         1.472087
 H         3.236746         2.498666        -0.036736
 H         3.582342         0.401948         2.912654
 H         1.894971         0.797852         3.370482
 H         2.199196        -1.732239         3.241531
 H        -0.858220         0.447400         0.527522
 H         0.100443         1.388546        -0.497685
 H        -0.037614        -0.174112        -1.039378
 H         2.265698        -2.195041         0.322387
