19
Iteration:  1403
 C         2.619045         2.186554         0.834448
 C         2.396372         0.786388         1.137776
 C         2.708651         0.444184         2.580509
 C         1.998023        -0.896983         2.441598
 O         0.563349        -0.537457         2.143085
 C         1.081675        -0.049744         0.872502
 C        -0.027923         0.227705        -0.136651
 C         2.323176        -1.097751         0.879858
 O         3.231980        -0.117769         0.464573
 H         2.159379         2.937889         1.504053
 H         3.684733         2.338845         0.943931
 H         2.224972         2.394975        -0.217934
 H         3.721947         0.416708         2.571237
 H         2.340943         1.280331         3.198675
 H         2.099418        -1.621038         3.190462
 H        -0.170604        -0.401696        -0.941430
 H        -0.934311         0.303854         0.466690
 H         0.124052         1.141020        -0.692697
 H         2.401371        -2.076814         0.276706
