19
Iteration:  3809charge 0 multiplicity 1
 C         1.236991         2.279933         1.318805
 C         1.976537         0.990136         1.645864
 C         1.767773         0.118623         2.901294
 C         2.046724        -1.145200         2.080886
 O         0.850349        -1.279880         1.219343
 C         1.533946        -0.210385         0.564589
 C         1.101801         0.244436        -0.827637
 C         2.992407        -0.669037         1.012667
 O         3.388515         0.675667         1.317437
 H         0.141803         2.118697         1.396465
 H         1.518668         3.026470         2.081754
 H         1.569170         2.703121         0.294103
 H         2.777719         0.334460         3.479099
 H         0.985598         0.160278         3.593268
 H         2.161589        -2.114468         2.615490
 H         1.171046        -0.723879        -1.394081
 H         0.193258         0.791105        -0.889445
 H         1.794167         0.922127        -1.262187
 H         3.575427        -1.410737         0.480434
