19
Iteration:  4436charge 0 multiplicity 1
 C         1.328059         2.338719         1.429880
 C         1.848322         0.937253         1.659931
 C         1.772859         0.029524         2.908051
 C         2.126209        -1.189117         2.179907
 O         0.978118        -1.347104         1.280526
 C         1.548720        -0.260671         0.495477
 C         1.069926         0.158612        -0.815690
 C         2.929932        -0.552109         0.926124
 O         3.277623         0.857249         1.222579
 H         0.270602         2.365145         1.497871
 H         1.927638         3.028333         2.012739
 H         1.640042         2.578538         0.373512
 H         2.495792         0.388719         3.667985
 H         0.764397        -0.034010         3.230163
 H         2.346421        -2.238552         2.498957
 H         1.341571        -0.620156        -1.586691
 H        -0.012259         0.332401        -0.909428
 H         1.510523         1.049714        -1.268605
 H         3.718934        -1.114931         0.373657
