19
Iteration:  1674charge 0 multiplicity 1
 C         2.594642         2.323801         0.819011
 C         2.334862         0.835800         1.190787
 C         2.686876         0.426145         2.606367
 C         2.096537        -0.964848         2.420602
 O         0.620676        -0.619261         2.157234
 C         1.074360        -0.106086         0.882311
 C         0.137692         0.174311        -0.173222
 C         2.182229        -1.064083         0.785250
 O         3.163228        -0.053213         0.500481
 H         2.133834         3.079240         1.547331
 H         3.702091         2.492972         0.823685
 H         2.204013         2.552030        -0.224460
 H         3.694524         0.494304         2.878170
 H         2.064103         1.029727         3.377018
 H         2.134063        -1.690808         3.210036
 H        -0.434032         1.083246         0.153623
 H         0.710556         0.259437        -1.170398
 H        -0.667844        -0.598930        -0.293737
 H         2.194485        -2.007512         0.144452
