19
Iteration:  4564charge 0 multiplicity 1
 C         1.336149         2.321278         1.664197
 C         1.826656         0.918470         1.588891
 C         1.774776         0.087896         2.947690
 C         2.112346        -1.200312         2.180939
 O         0.941924        -1.386651         1.298909
 C         1.542031        -0.245207         0.473911
 C         1.223263         0.030219        -0.954848
 C         2.894363        -0.496819         0.906893
 O         3.222333         0.924364         1.081270
 H         0.384488         2.231644         2.183524
 H         1.945728         2.883513         2.438170
 H         1.319609         2.835362         0.633770
 H         2.621650         0.435998         3.591715
 H         0.771888         0.146861         3.476621
 H         2.475157        -2.046514         2.800006
 H         0.692577         1.037674        -1.089810
 H         2.086826         0.052579        -1.611587
 H         0.516580        -0.647880        -1.341326
 H         3.621807        -1.075307         0.474462
