19
Iteration:  2376charge 0 multiplicity 1
 C         2.021808         2.305637         1.181357
 C         2.272314         0.843910         1.407877
 C         2.321216         0.421372         2.812498
 C         1.988981        -1.000894         2.390709
 O         0.648874        -0.874611         1.760388
 C         1.317065        -0.281586         0.686070
 C         0.324291         0.167861        -0.476586
 C         2.632247        -0.944216         0.792353
 O         3.407479         0.305354         0.674130
 H         1.390622         2.890159         1.928587
 H         2.921982         2.943441         0.965747
 H         1.619111         2.392635         0.193121
 H         3.238934         0.502501         3.335663
 H         1.347723         0.740721         3.336929
 H         2.143254        -1.847184         3.045598
 H        -0.578710        -0.458344        -0.307389
 H         0.224218         1.242075        -0.439733
 H         0.836076        -0.191686        -1.456219
 H         2.999983        -1.812998         0.250295
