19
Iteration:  3327
 C         1.314451         2.309902         1.406334
 C         1.853235         0.911925         1.646229
 C         1.850361         0.127575         2.951319
 C         2.117863        -1.182884         2.175813
 O         0.825594        -1.342997         1.248435
 C         1.535269        -0.269021         0.542135
 C         1.244418         0.171628        -0.914067
 C         2.946482        -0.575509         0.969206
 O         3.212721         0.775624         1.235811
 H         1.996057         2.981309         0.858907
 H         0.426108         2.113632         0.776710
 H         1.031990         2.864990         2.269978
 H         2.532496         0.592506         3.633548
 H         0.819508         0.148220         3.569846
 H         2.509033        -2.017190         2.790155
 H         0.459636        -0.400414        -1.426659
 H         0.804028         1.224720        -1.097567
 H         2.214957         0.084874        -1.493832
 H         3.824473        -1.001187         0.388424
