19
Iteration:   484charge 0 multiplicity 1
 C         2.668537         2.298215         0.799390
 C         2.423517         0.859294         1.117138
 C         2.615922         0.506002         2.583017
 C         2.030642        -0.886221         2.381725
 O         0.538557        -0.602130         2.118784
 C         1.101470        -0.107601         0.860159
 C        -0.057546         0.290380        -0.031757
 C         2.264472        -1.127428         0.823963
 O         3.328137        -0.254254         0.473846
 H         2.112096         2.793753         1.521365
 H         3.744281         2.590458         0.819933
 H         2.317188         2.524957        -0.207918
 H         3.600369         0.662050         3.031921
 H         1.954674         1.048935         3.191266
 H         2.226978        -1.561787         3.259290
 H        -0.565137        -0.577032        -0.511841
 H        -0.690952         0.655812         0.712095
 H         0.220866         1.195322        -0.703793
 H         2.218435        -2.193296         0.336360
