19
Iteration:  1807charge 0 multiplicity 1
 C         2.535365         2.363108         0.863130
 C         2.384209         0.868813         1.204563
 C         2.590824         0.447784         2.714141
 C         2.058257        -0.952272         2.416723
 O         0.650200        -0.610868         2.120636
 C         1.091166        -0.108848         0.821804
 C        -0.003445         0.168123        -0.287590
 C         2.323761        -1.085478         0.823190
 O         3.273184        -0.088825         0.502690
 H         3.578339         2.715100         0.830484
 H         1.903172         2.722504         0.032810
 H         2.129852         2.895631         1.809992
 H         3.639017         0.517059         3.035828
 H         1.820925         0.870494         3.351067
 H         2.164332        -1.941193         2.993028
 H         0.562389        -0.017783        -1.193347
 H        -0.794067        -0.604480        -0.282927
 H        -0.557619         1.140460        -0.192621
 H         2.589508        -2.079911         0.311073
