19
Iteration:  4804
 C         1.312031         2.385449         1.538045
 C         1.800154         0.995800         1.642762
 C         1.674020         0.007566         2.874554
 C         2.245270        -1.196162         2.108636
 O         1.138396        -1.509800         1.138349
 C         1.591635        -0.225929         0.516968
 C         0.896391         0.055446        -0.820299
 C         2.993903        -0.423928         0.903308
 O         3.268209         0.911104         1.308607
 H         0.563968         2.574264         2.281686
 H         2.022055         3.180897         1.857338
 H         0.935936         2.757283         0.540532
 H         2.279648         0.511181         3.703217
 H         0.669280        -0.168448         3.246317
 H         2.754567        -2.121472         2.488806
 H        -0.120089        -0.426882        -0.730233
 H         0.670361         1.118410        -1.087182
 H         1.445199        -0.490952        -1.674094
 H         3.706197        -1.092358         0.389911
