19
Iteration:    80
 C         2.698031         2.303310         0.705086
 C         2.393794         0.854629         1.163184
 C         2.646452         0.460168         2.592536
 C         2.013190        -0.951794         2.456533
 O         0.633739        -0.642481         2.273056
 C         1.088550        -0.074121         0.936375
 C         0.155987         0.330760        -0.088867
 C         2.172720        -1.158120         0.887209
 O         3.093477        -0.169173         0.298065
 H         2.005558         2.999147         1.113354
 H         3.682666         2.629085         0.972867
 H         2.631500         2.387201        -0.325543
 H         3.602395         0.590296         2.886755
 H         1.912702         0.970152         3.224418
 H         2.241336        -1.661062         3.334233
 H         0.061439        -0.360310        -0.980965
 H        -0.791441         0.539042         0.320247
 H         0.454326         1.363115        -0.529576
 H         2.101996        -2.219465         0.363201
