19
Iteration:  3323charge 0 multiplicity 1
 C         1.343062         2.340730         1.405438
 C         1.783502         0.879358         1.625456
 C         1.865151         0.137043         3.009814
 C         2.112335        -1.207517         2.137003
 O         0.867052        -1.324846         1.238860
 C         1.547943        -0.269993         0.539229
 C         1.244437         0.180162        -0.912010
 C         2.932982        -0.599555         0.973649
 O         3.191208         0.787091         1.228597
 H         2.077697         3.036994         0.972063
 H         0.470469         2.110239         0.748863
 H         0.902168         2.935433         2.290890
 H         2.657255         0.734133         3.624142
 H         0.928369         0.103831         3.527669
 H         2.433744        -1.970597         2.829201
 H         0.468640        -0.521004        -1.429373
 H         0.837567         1.165075        -1.077792
 H         2.157675         0.089822        -1.474798
 H         3.757391        -1.164733         0.505988
