19
Iteration:   405
 C         2.522338         2.327315         0.740501
 C         2.422297         0.867224         1.199516
 C         2.673695         0.363527         2.668659
 C         2.051553        -1.001197         2.416484
 O         0.609039        -0.537833         2.238919
 C         1.128666        -0.044529         0.969624
 C         0.263438         0.279681        -0.184144
 C         2.136518        -1.098807         0.851902
 O         3.110249        -0.165076         0.338824
 H         1.507797         2.860498         0.975615
 H         3.413993         2.696330         1.231881
 H         2.632771         2.358382        -0.351715
 H         3.718984         0.370278         2.957360
 H         2.008231         0.947090         3.337513
 H         2.294740        -1.775774         3.067276
 H        -0.606293        -0.338448        -0.011743
 H        -0.120075         1.383330        -0.212464
 H         0.765336        -0.034468        -1.139931
 H         2.057975        -2.102780         0.295137
