19
Iteration:  2568
 C         1.959587         2.526001         1.175229
 C         2.141239         1.016963         1.379463
 C         2.153326         0.286363         2.790492
 C         2.037845        -1.106229         2.302003
 O         0.701888        -1.034544         1.658329
 C         1.356539        -0.337053         0.623658
 C         0.461560         0.060598        -0.481839
 C         2.704315        -0.880091         0.881119
 O         3.376731         0.425789         0.844142
 H         1.635184         2.743881         0.186786
 H         1.363344         2.784912         2.052610
 H         2.978378         2.939835         1.329077
 H         3.102491         0.428444         3.409349
 H         1.236550         0.589397         3.312529
 H         2.321093        -1.980527         2.897706
 H        -0.013458        -0.781892        -1.107898
 H        -0.355824         0.632656         0.034735
 H         1.045727         0.742613        -1.217363
 H         3.233083        -1.720102         0.355875
