19
Iteration:  3036charge 0 multiplicity 1
 C         1.525528         2.360867         1.337788
 C         1.939975         1.003819         1.564691
 C         1.986983         0.198257         2.898672
 C         2.053098        -1.104821         2.151012
 O         0.804068        -1.170040         1.384319
 C         1.518452        -0.221302         0.550433
 C         0.820281        -0.031132        -0.723921
 C         2.877583        -0.648322         0.841988
 O         3.416133         0.599941         1.189759
 H         2.410346         3.045894         1.278987
 H         1.025525         2.512038         0.404490
 H         0.833413         2.576212         2.101170
 H         2.658107         0.410321         3.682310
 H         0.905571         0.272527         3.314925
 H         2.134840        -1.982542         2.812461
 H         0.390730        -0.922550        -1.110047
 H         0.009182         0.743216        -0.554189
 H         1.475406         0.510980        -1.523388
 H         3.558431        -1.291023         0.299425
