19
Iteration:  3239
 C         1.474313         2.468606         1.462964
 C         1.889337         0.972203         1.558252
 C         1.771056         0.231895         2.838723
 C         2.066980        -1.231150         2.065425
 O         0.952792        -1.350853         1.155827
 C         1.533128        -0.269144         0.491843
 C         0.913192        -0.094918        -0.822179
 C         2.991549        -0.564443         1.042148
 O         3.290429         0.808708         1.365434
 H         1.466676         2.816169         2.500062
 H         2.376065         3.028629         1.197620
 H         0.561185         2.738730         0.965210
 H         2.544051         0.464889         3.586331
 H         0.721363         0.324738         3.303764
 H         2.393017        -2.011634         2.737632
 H         1.402618        -0.704777        -1.646942
 H        -0.120865        -0.533951        -0.725494
 H         0.920896         0.984935        -1.020826
 H         3.752344        -1.148302         0.450376
