19
Iteration:  3812
 C         1.256976         2.267417         1.293968
 C         1.982437         0.971183         1.637035
 C         1.795795         0.140375         2.919969
 C         2.031784        -1.180814         2.085723
 O         0.855383        -1.251038         1.192285
 C         1.531872        -0.240036         0.593530
 C         1.069611         0.255997        -0.831725
 C         2.997793        -0.646562         1.026258
 O         3.393999         0.683674         1.335495
 H         0.161873         2.077899         1.327585
 H         1.373140         3.031076         2.107144
 H         1.529981         2.604288         0.314781
 H         2.732706         0.281816         3.409998
 H         0.961110         0.114794         3.640610
 H         2.155902        -2.067448         2.653946
 H         1.116147        -0.632165        -1.420301
 H         0.141584         0.768179        -0.937532
 H         1.820334         0.907376        -1.326135
 H         3.608483        -1.375610         0.430543
