19
Iteration:  1473
 C         2.556903         2.301026         0.761398
 C         2.361959         0.902781         1.203068
 C         2.687451         0.458753         2.632156
 C         2.026311        -0.940608         2.465277
 O         0.596064        -0.596051         2.156769
 C         1.064841        -0.156693         0.857541
 C         0.027981         0.317835        -0.183613
 C         2.267672        -1.118012         0.839459
 O         3.254812        -0.168276         0.465401
 H         2.472234         3.022753         1.591045
 H         3.640784         2.390294         0.462433
 H         1.783985         2.571253         0.033305
 H         3.829615         0.270399         2.826392
 H         2.294987         1.088155         3.350446
 H         2.238244        -1.885186         3.082901
 H        -0.635983        -0.503173        -0.553793
 H        -0.446007         1.087339         0.396192
 H         0.545558         0.543743        -1.142556
 H         2.308706        -2.102603         0.437122
