19
Iteration:  1908
 C         2.401598         2.338208         0.844839
 C         2.426589         0.824588         1.288830
 C         2.559249         0.498838         2.745348
 C         2.006236        -0.991731         2.444559
 O         0.567816        -0.751831         1.993382
 C         1.153631        -0.224512         0.812580
 C         0.117615         0.255186        -0.239865
 C         2.374541        -1.016458         0.873635
 O         3.316937         0.010849         0.457585
 H         2.238674         2.409709        -0.247462
 H         1.664682         2.988017         1.372100
 H         3.303858         2.891533         1.132011
 H         3.597007         0.514233         3.144309
 H         1.891478         1.033600         3.347958
 H         2.032164        -1.830704         3.118392
 H        -0.856562        -0.144964         0.007840
 H         0.116545         1.284321        -0.119842
 H         0.374238        -0.162528        -1.231254
 H         2.580080        -1.906049         0.357645
