19
Iteration:   498charge 0 multiplicity 1
 C         2.673949         2.283803         0.712869
 C         2.443677         0.831541         1.159294
 C         2.650747         0.509853         2.637209
 C         1.993718        -0.949068         2.464223
 O         0.662144        -0.640829         2.065105
 C         1.060551        -0.145167         0.808715
 C        -0.101657         0.355076        -0.053642
 C         2.263373        -1.115496         0.915178
 O         3.246030        -0.147567         0.499367
 H         2.390667         3.003925         1.478261
 H         3.783744         2.411753         0.780697
 H         2.141328         2.442013        -0.264748
 H         3.732966         0.380417         2.640675
 H         2.049444         1.175215         3.374075
 H         2.028253        -1.921709         3.108172
 H        -0.537646        -0.495556        -0.721814
 H        -0.956008         0.830751         0.503300
 H         0.209174         1.076690        -0.850838
 H         2.385037        -2.103531         0.534596
