19
Iteration:  3303
 C         1.302448         2.403879         1.445094
 C         1.797855         0.976380         1.551301
 C         1.782351         0.081954         2.845901
 C         2.045896        -1.203057         2.212452
 O         0.969954        -1.361745         1.250374
 C         1.556858        -0.215054         0.557353
 C         1.174981         0.069288        -0.888136
 C         2.917200        -0.586084         0.998630
 O         3.273440         0.787354         1.243990
 H         2.271712         2.914015         1.612405
 H         0.835132         2.817466         0.512736
 H         0.843768         2.773731         2.397089
 H         2.741583         0.312213         3.434482
 H         0.990482         0.199995         3.658118
 H         2.341957        -2.142159         2.721653
 H         0.466193        -0.713715        -1.388698
 H         0.506170         0.969590        -1.006847
 H         2.081702         0.224988        -1.498508
 H         3.674301        -1.054745         0.314415
