19
Iteration:  1440
 C         2.604774         2.279574         0.598073
 C         2.401697         0.881429         1.253696
 C         2.630292         0.419791         2.666971
 C         2.043225        -1.054026         2.417145
 O         0.536604        -0.582226         2.178424
 C         1.134392        -0.066638         0.972855
 C         0.161623         0.286916        -0.133781
 C         2.232219        -1.077530         0.857897
 O         3.181459        -0.087481         0.446996
 H         2.425376         3.126696         1.254130
 H         3.518337         2.372192        -0.042586
 H         1.837995         2.345505        -0.203946
 H         3.620215         0.207417         3.230005
 H         2.020043         0.931632         3.308979
 H         2.334866        -2.082876         2.813688
 H        -0.160422        -0.616973        -0.728743
 H        -0.730013         0.629625         0.377426
 H         0.461164         1.232266        -0.628914
 H         2.249559        -2.025673         0.365831
