19
Iteration:    59
 C         2.635766         2.240211         0.626991
 C         2.385304         0.821137         1.113870
 C         2.710313         0.400103         2.608783
 C         2.016622        -0.950305         2.450813
 O         0.566081        -0.576834         2.221172
 C         1.002810        -0.143301         0.909591
 C        -0.017470         0.394178        -0.068538
 C         2.299537        -1.102952         0.886116
 O         3.244526        -0.123269         0.450438
 H         1.981805         2.976541         0.998219
 H         3.579284         2.516740         1.048334
 H         2.758362         2.289659        -0.405983
 H         3.744761         0.211443         2.643290
 H         2.428781         0.983933         3.472696
 H         2.141182        -1.835088         3.152586
 H        -0.201876        -0.348738        -0.936432
 H        -0.971155         0.618474         0.436341
 H         0.336092         1.460118        -0.509579
 H         2.400258        -2.146306         0.367137
