19
Iteration:  4583
 C         1.172625         2.338649         1.635890
 C         1.845400         0.934072         1.513732
 C         1.814141         0.189026         2.817554
 C         2.167741        -1.174857         2.132987
 O         0.955421        -1.332011         1.248729
 C         1.513513        -0.266676         0.566268
 C         1.128516         0.115027        -0.847353
 C         3.049816        -0.599939         0.950582
 O         3.266367         0.781585         1.202321
 H         0.224373         2.376315         2.142231
 H         1.880301         3.012315         2.174512
 H         1.076299         2.706799         0.620577
 H         2.526872         0.476652         3.559144
 H         0.803429        -0.120111         3.185367
 H         2.373367        -2.110277         2.636835
 H         0.914358         1.222402        -1.003054
 H         1.974876        -0.206560        -1.527498
 H         0.230574        -0.395958        -1.240953
 H         3.731125        -1.135840         0.336412
