19
Iteration:  3739
 C         1.589750         2.608203         1.710509
 C         1.876884         1.032991         1.604210
 C         1.612648         0.109906         2.858536
 C         2.016056        -1.194498         2.135044
 O         0.984188        -1.362234         1.112395
 C         1.499516        -0.172539         0.442601
 C         0.989550        -0.269282        -0.989957
 C         2.981148        -0.592905         0.905072
 O         3.277960         0.810242         1.371630
 H         0.690067         2.896400         2.286517
 H         2.479328         3.040783         2.259283
 H         1.535624         3.024602         0.741999
 H         2.350225         0.329339         3.598322
 H         0.527384         0.155212         3.329923
 H         2.172178        -2.048948         2.789905
 H         1.387977        -1.145942        -1.426472
 H        -0.033063         0.188910        -1.185478
 H         1.542131         0.611857        -1.495045
 H         3.946917        -1.041650         0.696214
