19
Iteration:  1680charge 0 multiplicity 1
 C         2.586634         2.306545         0.829987
 C         2.368038         0.826304         1.210334
 C         2.697295         0.446294         2.636835
 C         2.069706        -0.915919         2.440375
 O         0.573988        -0.650842         2.121817
 C         1.093365        -0.116389         0.900356
 C         0.096083         0.163589        -0.172232
 C         2.215970        -1.041534         0.772228
 O         3.195066        -0.071020         0.461190
 H         2.231894         2.982048         1.605078
 H         3.670626         2.511747         0.771777
 H         1.981850         2.454568        -0.033257
 H         3.844436         0.573626         2.873045
 H         2.180239         1.092744         3.291870
 H         2.187786        -1.691723         3.218943
 H        -0.376712         1.156703        -0.059701
 H         0.678224         0.221022        -1.055944
 H        -0.810933        -0.416236        -0.250530
 H         2.147056        -1.929372         0.236239
