19
Iteration:  2010charge 0 multiplicity 1
 C         2.415603         2.407523         1.003049
 C         2.312657         0.888985         1.276753
 C         2.496756         0.456148         2.635553
 C         2.038193        -1.016386         2.377237
 O         0.657086        -0.741538         2.055632
 C         1.123836        -0.156428         0.841624
 C         0.214649         0.103475        -0.340988
 C         2.372984        -0.984223         0.796111
 O         3.238493         0.027080         0.545609
 H         1.487648         2.843850         0.589935
 H         2.495896         3.077929         1.800602
 H         3.135087         2.587415         0.234794
 H         3.495685         0.316610         2.844147
 H         2.033354         0.920463         3.567109
 H         2.136592        -1.807735         3.164390
 H         0.625083         1.071385        -0.669374
 H         0.405792        -0.676672        -1.108167
 H        -0.829785         0.139174        -0.119682
 H         2.556915        -1.994719         0.344466
