19
Iteration:  1500
 C         2.568071         2.365329         0.856534
 C         2.435429         0.880766         1.114789
 C         2.686307         0.419973         2.590896
 C         1.946296        -0.919390         2.449853
 O         0.605079        -0.566810         2.137676
 C         1.120318        -0.064579         0.902515
 C         0.036452         0.177940        -0.114734
 C         2.275089        -1.143194         0.851403
 O         3.248403        -0.169849         0.383302
 H         2.045607         2.825494         1.702877
 H         3.592519         2.646289         0.924025
 H         2.127290         2.719321        -0.090722
 H         3.648045         0.256868         2.983082
 H         1.996099         1.162332         3.281774
 H         2.066246        -1.658133         3.172735
 H        -0.913375        -0.350143         0.033414
 H        -0.198221         1.327840        -0.080293
 H         0.449118        -0.148685        -1.071814
 H         2.285571        -2.162616         0.329383
