19
Iteration:  4528charge 0 multiplicity 1
 C         1.381478         2.459561         1.655562
 C         1.844619         0.997988         1.555222
 C         1.743256         0.151530         2.867581
 C         2.157541        -1.211279         2.062546
 O         0.938951        -1.372272         1.206750
 C         1.523599        -0.257875         0.495753
 C         1.072190        -0.094524        -0.892505
 C         2.943345        -0.455653         0.858551
 O         3.272520         0.819889         1.363757
 H         0.279497         2.490177         1.639488
 H         1.860562         3.023792         2.495307
 H         1.628061         3.051723         0.776210
 H         2.550894         0.401368         3.559641
 H         0.835162        -0.197487         3.474537
 H         2.597578        -2.114452         2.454242
 H        -0.024944         0.120269        -0.789079
 H         1.605332         0.646117        -1.578972
 H         1.200101        -1.153063        -1.304464
 H         3.673643        -1.060446         0.249856
