19
Iteration:  3440
 C         1.446120         2.422893         1.531338
 C         1.824607         0.940265         1.602670
 C         1.665309         0.087592         2.832033
 C         2.031911        -1.212761         2.205825
 O         0.960260        -1.423689         1.225606
 C         1.509643        -0.243715         0.479648
 C         1.147082         0.115779        -0.961383
 C         2.971230        -0.559847         0.968485
 O         3.299503         0.846195         1.325060
 H         0.623151         2.643699         0.863830
 H         1.123558         2.712436         2.501022
 H         2.255440         3.034300         1.096339
 H         2.256650         0.680981         3.623413
 H         0.635099         0.069439         3.045012
 H         2.237863        -2.181858         2.720614
 H         1.041486        -0.934321        -1.384086
 H         0.204788         0.605750        -1.110085
 H         2.025542         0.561202        -1.401315
 H         3.871408        -1.113837         0.670761
