19
Iteration:   242
 C         2.472466         2.339935         0.790988
 C         2.443904         0.840752         1.162522
 C         2.698761         0.346648         2.611248
 C         1.965763        -1.027391         2.340995
 O         0.748595        -0.400103         2.165252
 C         1.151458         0.010339         0.852551
 C         0.040956         0.228012        -0.098530
 C         2.157793        -1.103548         0.866546
 O         3.238186        -0.248721         0.485380
 H         1.556657         2.852410         1.178979
 H         3.473594         2.917253         1.054900
 H         2.352630         2.460834        -0.293995
 H         3.729183         0.334599         2.764497
 H         2.020747         0.793225         3.420606
 H         2.032878        -1.927393         3.028729
 H        -0.602904        -0.633543         0.063286
 H        -0.463910         1.197191         0.350215
 H         0.405874         0.254145        -1.151795
 H         2.109111        -2.046101         0.199739
