19
Iteration:  3656
 C         1.283656         2.256079         1.307751
 C         1.873290         0.888607         1.598844
 C         1.747710         0.205710         2.913379
 C         2.055229        -1.233825         2.182809
 O         0.938896        -1.338034         1.284260
 C         1.530643        -0.247108         0.525197
 C         1.221974         0.348645        -0.780988
 C         2.929671        -0.624831         0.949508
 O         3.309931         0.691242         1.219356
 H         0.200106         2.069715         1.116718
 H         1.346481         2.822901         2.241039
 H         1.748633         2.859212         0.462162
 H         2.524584         0.365111         3.720187
 H         0.786502         0.220971         3.365741
 H         2.129667        -2.043976         2.989038
 H         1.101826        -0.396252        -1.607960
 H         0.250984         0.817424        -0.892012
 H         2.003259         1.057230        -0.952134
 H         3.805157        -1.107786         0.478167
