19
Iteration:  4625charge 0 multiplicity 1
 C         1.333063         2.228463         1.405377
 C         1.866290         0.933345         1.672651
 C         1.761843         0.056486         2.898574
 C         2.156531        -1.251682         2.092772
 O         1.046942        -1.300826         1.103854
 C         1.586628        -0.180689         0.473555
 C         0.830754         0.087466        -0.761381
 C         3.051336        -0.484653         0.967273
 O         3.316114         0.877854         1.366667
 H         0.236718         2.163020         1.454003
 H         1.729680         3.115363         1.897734
 H         1.323518         2.454802         0.373594
 H         2.472171         0.468676         3.589707
 H         0.721464         0.081415         3.279071
 H         2.266347        -2.142515         2.705694
 H         1.382787         0.918796        -1.209892
 H         0.845482        -0.873049        -1.341552
 H        -0.221170         0.366979        -0.529688
 H         3.991047        -1.004382         0.604130
