19
Iteration:  3215charge 0 multiplicity 1
 C         1.482563         2.445718         1.367090
 C         1.838475         0.961280         1.688507
 C         1.715342         0.111687         2.957678
 C         2.076386        -1.189137         2.174613
 O         1.003418        -1.382231         1.300093
 C         1.471970        -0.261477         0.531122
 C         0.949405         0.097953        -0.919710
 C         2.956526        -0.596881         0.945870
 O         3.348383         0.793490         1.190798
 H         0.880797         2.890121         2.128930
 H         2.418059         3.000539         1.574658
 H         0.985957         2.553335         0.372334
 H         2.459993         0.672527         3.686535
 H         0.793278        -0.176334         3.441458
 H         2.308643        -1.963092         2.882741
 H         1.768029        -0.241076        -1.720860
 H         0.141324        -0.629877        -1.162561
 H         0.645660         1.144250        -1.039698
 H         3.666262        -1.219731         0.379432
