19
Iteration:  1494charge 0 multiplicity 1
 C         2.586524         2.397821         0.851849
 C         2.465782         0.846178         1.080188
 C         2.690561         0.434553         2.559632
 C         1.985587        -0.905981         2.430868
 O         0.562879        -0.574622         2.114576
 C         1.088517        -0.077145         0.914210
 C         0.021848         0.195992        -0.107182
 C         2.282104        -1.166625         0.886526
 O         3.228864        -0.160691         0.422212
 H         2.103005         2.916930         1.695411
 H         3.630105         2.841467         0.840903
 H         1.938117         2.682371        -0.028510
 H         3.709863         0.255810         3.051246
 H         2.087722         0.846512         3.275794
 H         2.077210        -1.709950         3.244262
 H        -0.880528        -0.417418        -0.071599
 H        -0.056663         1.226532         0.066218
 H         0.488043        -0.003472        -1.108109
 H         2.350935        -2.136264         0.386937
