19
Iteration:  3269
 C         1.415013         2.399453         1.551621
 C         1.975288         0.992597         1.605039
 C         1.600068         0.136541         2.875119
 C         2.108490        -1.140634         2.162469
 O         1.006068        -1.246779         1.217950
 C         1.593145        -0.232879         0.462723
 C         0.916717        -0.096030        -0.932050
 C         2.962912        -0.568546         0.978390
 O         3.350489         0.743080         1.279371
 H         2.002224         2.868193         2.344558
 H         1.549076         3.011465         0.625550
 H         0.302743         2.396067         1.807904
 H         2.169291         0.465650         3.835349
 H         0.527314         0.119273         2.915365
 H         2.520565        -1.883618         2.819492
 H         0.938311        -1.127800        -1.483691
 H        -0.093606         0.308141        -0.771592
 H         1.401490         0.622814        -1.599201
 H         3.710301        -1.162332         0.445958
