19
Iteration:  2762charge 0 multiplicity 1
 C         1.940959         2.441649         1.320348
 C         2.066998         0.920096         1.505308
 C         1.934229         0.344444         2.841863
 C         2.071814        -1.122373         2.307423
 O         0.811403        -1.189809         1.534720
 C         1.346952        -0.218118         0.625429
 C         0.543062         0.013277        -0.635105
 C         2.758991        -0.750490         0.827407
 O         3.390466         0.550025         0.914826
 H         2.928038         2.858025         1.308182
 H         1.539663         2.704916         0.291000
 H         1.344719         2.863128         2.176576
 H         2.908427         0.565114         3.299206
 H         1.098099         0.699305         3.387908
 H         2.123145        -2.094014         2.860132
 H         1.177955        -0.451088        -1.400919
 H        -0.407403        -0.500913        -0.551081
 H         0.372106         0.999212        -0.915276
 H         3.309594        -1.509936         0.177461
