19
Iteration:  3114
 C         1.583688         2.454371         1.466989
 C         1.853241         0.995442         1.561237
 C         1.781750         0.123238         2.843220
 C         2.120346        -1.128913         2.217420
 O         0.908686        -1.321079         1.390232
 C         1.416611        -0.182416         0.573067
 C         0.880189        -0.027802        -0.882641
 C         2.903808        -0.657305         0.915056
 O         3.398727         0.739007         1.132924
 H         1.582025         2.677442         0.372083
 H         0.699192         2.724702         2.001893
 H         2.373079         3.042507         1.942362
 H         2.621226         0.436385         3.549397
 H         0.873800         0.130491         3.468994
 H         2.269700        -1.974258         2.882578
 H         0.091475         0.763722        -1.061166
 H         1.664267         0.276976        -1.607415
 H         0.430097        -1.052173        -1.179263
 H         3.584241        -1.190042         0.266946
