19
Iteration:   324charge 0 multiplicity 1
 C         2.687607         2.125011         0.653753
 C         2.470054         0.837134         1.192904
 C         2.563817         0.375328         2.696873
 C         2.001812        -0.967719         2.384181
 O         0.631187        -0.597392         2.266305
 C         1.082655         0.031630         0.918705
 C         0.047817         0.271544        -0.118473
 C         2.215622        -1.032982         0.811260
 O         3.210540        -0.061372         0.425933
 H         2.122927         2.936583         1.362704
 H         3.783795         2.406392         0.364555
 H         2.150714         2.245243        -0.354092
 H         3.600649         0.538892         3.119504
 H         1.864785         0.894535         3.416928
 H         2.285629        -1.816669         3.068160
 H        -0.356685        -0.645253        -0.614122
 H        -0.881594         0.796038         0.176350
 H         0.404442         0.872516        -0.993093
 H         2.293890        -1.929820         0.254335
