19
Iteration:  1534charge 0 multiplicity 1
 C         2.610488         2.298272         0.741647
 C         2.400260         0.892804         1.240881
 C         2.729458         0.325116         2.652171
 C         2.055626        -0.992288         2.338911
 O         0.628222        -0.517630         2.191637
 C         1.039984        -0.118324         0.927767
 C         0.044139         0.175073        -0.183882
 C         2.217612        -1.075160         0.854750
 O         3.149033        -0.032086         0.475388
 H         1.746699         2.884669         0.976764
 H         3.439276         2.700708         1.298704
 H         2.843153         2.368472        -0.342424
 H         3.771107         0.341853         2.880558
 H         2.156148         1.029852         3.395748
 H         2.189062        -1.781652         3.053990
 H        -0.993307        -0.063944        -0.000482
 H         0.095600         1.193837        -0.659322
 H         0.373320        -0.409157        -1.089194
 H         2.335060        -2.094961         0.293380
