19
Iteration:  4781charge 0 multiplicity 1
 C         1.285577         2.253881         1.497144
 C         1.749401         0.888605         1.615942
 C         1.749832         0.110457         2.846845
 C         2.258709        -1.223777         2.185797
 O         1.178618        -1.505928         1.196957
 C         1.499196        -0.305511         0.498298
 C         0.911859         0.272554        -0.814957
 C         3.055621        -0.450281         0.893468
 O         3.194984         0.882838         1.281754
 H         0.517654         2.670719         2.113536
 H         2.124481         3.022950         1.675594
 H         1.075316         2.534819         0.425917
 H         2.254761         0.625752         3.734258
 H         0.739017        -0.123640         3.189300
 H         2.698350        -2.048668         2.856848
 H        -0.069927        -0.255309        -1.158095
 H         0.571660         1.315144        -0.704964
 H         1.694468         0.091159        -1.594421
 H         3.883464        -0.980400         0.468022
