19
Iteration:  2938charge 0 multiplicity 1
 C         1.773601         2.423209         1.389345
 C         1.978195         0.948295         1.570732
 C         1.942708         0.271375         2.873891
 C         1.981183        -1.111225         2.234456
 O         0.820655        -1.192660         1.349340
 C         1.450876        -0.201152         0.583754
 C         0.663647        -0.108221        -0.746996
 C         2.863689        -0.622415         0.837747
 O         3.440578         0.611134         1.122214
 H         1.035715         2.877987         2.084356
 H         2.716629         2.963085         1.371108
 H         1.220872         2.515331         0.492904
 H         2.850582         0.568165         3.296338
 H         1.162583         0.271475         3.727171
 H         2.124691        -1.931436         2.951819
 H         0.964887         0.714734        -1.340699
 H         0.615606        -1.079988        -1.339988
 H        -0.470445        -0.030879        -0.501689
 H         3.339427        -1.318427         0.135281
