19
Iteration:  2314
 C         2.231991         2.399370         1.091381
 C         2.226120         0.961617         1.368908
 C         2.361414         0.314735         2.880490
 C         2.056462        -1.039303         2.375811
 O         0.689823        -0.921413         1.877922
 C         1.176683        -0.141400         0.699779
 C         0.340122         0.034167        -0.528291
 C         2.523524        -0.895688         0.861836
 O         3.280454         0.302631         0.606782
 H         1.380539         2.668477         0.439708
 H         2.268571         2.949094         2.012814
 H         3.199731         2.596660         0.549556
 H         3.280776         0.450616         3.416656
 H         1.487073         0.577795         3.616755
 H         2.224365        -1.905594         2.988188
 H         0.819779        -0.577281        -1.361899
 H        -0.737576        -0.224063        -0.438238
 H         0.368247         1.032514        -0.973452
 H         2.760487        -1.827555         0.334537
