19
Iteration:  4330
 C         1.514722         2.413550         1.424447
 C         1.855165         0.975242         1.612519
 C         1.709134         0.108334         2.922595
 C         2.121653        -1.165848         2.197561
 O         0.979243        -1.430962         1.201948
 C         1.497061        -0.238629         0.484319
 C         0.997858         0.076749        -0.906702
 C         2.947280        -0.556020         0.933969
 O         3.254988         0.805983         1.356162
 H         0.414286         2.654877         1.446133
 H         2.014447         3.023335         2.157362
 H         1.817138         2.628606         0.405956
 H         2.365208         0.200914         3.825382
 H         0.756297         0.093666         3.369277
 H         2.509596        -2.130198         2.426022
 H         1.271716         1.099578        -1.171600
 H         1.283435        -0.536719        -1.724676
 H        -0.103359         0.196851        -0.777184
 H         3.791766        -1.152141         0.430423
