19
Iteration:  3406
 C         1.532373         2.528084         1.508815
 C         1.794689         0.987563         1.620985
 C         1.599024         0.041349         2.845120
 C         2.118333        -1.218479         2.137390
 O         1.042712        -1.396178         1.114947
 C         1.523990        -0.201654         0.486877
 C         1.061476        -0.028992        -0.909444
 C         2.964998        -0.535596         0.969968
 O         3.253330         0.820376         1.416275
 H         0.894889         2.695392         0.651855
 H         1.002422         2.985409         2.305609
 H         2.494404         2.998641         1.484136
 H         2.055592         0.480012         3.747193
 H         0.523133         0.001173         3.134728
 H         2.297080        -2.101058         2.794837
 H         0.477686        -0.949172        -0.984222
 H         0.350469         0.798889        -1.136817
 H         1.795022        -0.027462        -1.727739
 H         3.820540        -1.093871         0.651533
