19
Iteration:  4070
 C         1.473787         2.445126         1.701815
 C         1.916290         1.044939         1.611677
 C         1.788096         0.198115         2.783985
 C         1.945004        -1.165641         2.145249
 O         0.820202        -1.228544         1.209256
 C         1.524393        -0.197982         0.474957
 C         0.966908        -0.179352        -0.990893
 C         2.955717        -0.633562         0.992324
 O         3.462923         0.703340         1.256551
 H         0.491684         2.717435         1.255830
 H         1.266806         2.702152         2.737625
 H         2.153407         3.171842         1.320544
 H         2.495737         0.567031         3.578766
 H         0.835028         0.373131         3.248925
 H         2.443949        -1.962366         2.628863
 H         1.352574        -1.207313        -1.350097
 H        -0.115472        -0.119733        -1.093330
 H         1.430827         0.653838        -1.626993
 H         3.855913        -1.188751         0.551475
