19
Iteration:  2827
 C         1.731847         2.329626         1.328352
 C         2.099232         0.974579         1.562344
 C         2.094336         0.246043         2.847884
 C         2.082487        -1.128416         2.236630
 O         0.696190        -1.070939         1.534926
 C         1.362374        -0.162709         0.643896
 C         0.703522        -0.004650        -0.765764
 C         2.742034        -0.751259         0.859263
 O         3.404923         0.584547         0.980493
 H         1.873041         2.581292         0.281027
 H         0.684821         2.504558         1.582791
 H         2.430906         2.966516         1.857310
 H         2.987860         0.482403         3.423877
 H         1.247945         0.450568         3.440165
 H         2.417727        -1.996969         2.833587
 H        -0.116034        -0.734107        -0.564316
 H         0.117092         0.881609        -1.022767
 H         1.300977        -0.340435        -1.571364
 H         3.228218        -1.603793         0.281354
