19
Iteration:  3667charge 0 multiplicity 1
 C         1.302186         2.326901         1.395804
 C         1.895684         0.920700         1.545574
 C         1.796236         0.152236         2.908140
 C         1.989622        -1.129183         2.271009
 O         0.917723        -1.396539         1.227758
 C         1.608534        -0.323180         0.498157
 C         1.132223         0.324250        -0.812988
 C         2.976966        -0.699832         0.949479
 O         3.294470         0.761746         1.286198
 H         0.230016         2.169599         1.119221
 H         1.419685         3.117006         2.132833
 H         1.779548         2.742502         0.428692
 H         2.505233         0.617136         3.663340
 H         0.797881         0.242938         3.261641
 H         2.165521        -2.195439         2.603878
 H         1.369276        -0.448903        -1.590171
 H         0.143268         0.768774        -0.790569
 H         1.796361         1.113707        -1.075316
 H         3.565548        -1.398429         0.304081
