19
Iteration:  1624charge 0 multiplicity 1
 C         2.539068         2.300549         0.754694
 C         2.471556         0.833516         1.239428
 C         2.728044         0.451934         2.635015
 C         1.964461        -0.923873         2.390013
 O         0.617652        -0.636560         2.072822
 C         1.125639        -0.012524         0.848433
 C         0.035029         0.229740        -0.056025
 C         2.247206        -1.106577         0.824450
 O         3.181418        -0.145356         0.496760
 H         1.497234         2.533062         0.785425
 H         3.064515         3.012301         1.435947
 H         2.983531         2.545822        -0.246988
 H         3.898594         0.260240         2.710529
 H         2.381774         1.101744         3.399755
 H         2.020299        -1.734740         3.237956
 H        -0.881148         0.438685         0.527533
 H         0.256051         1.104253        -0.626386
 H         0.085622        -0.507267        -0.905587
 H         2.143257        -2.083509         0.276478
