19
Iteration:  3109charge 0 multiplicity 1
 C         1.617777         2.432250         1.468637
 C         1.879756         0.988955         1.563678
 C         1.801678         0.167073         2.866856
 C         2.082092        -1.101074         2.215778
 O         0.932929        -1.366926         1.369262
 C         1.383516        -0.186444         0.565330
 C         0.873800        -0.020538        -0.896222
 C         2.895562        -0.662812         0.954430
 O         3.369309         0.744087         1.116932
 H         1.729726         2.711589         0.424602
 H         0.620537         2.845225         1.839580
 H         2.392185         2.914406         2.104988
 H         2.610906         0.490558         3.482442
 H         0.859937         0.067665         3.434462
 H         2.313875        -1.959118         2.874413
 H        -0.016302         0.602073        -0.854289
 H         1.623154         0.387255        -1.571585
 H         0.591357        -0.963136        -1.256290
 H         3.610851        -1.099763         0.218825
