19
Iteration:  1528
 C         2.597001         2.235429         0.814472
 C         2.348463         0.897428         1.225188
 C         2.717962         0.368642         2.666550
 C         2.094085        -0.956110         2.364001
 O         0.613461        -0.489773         2.174222
 C         1.064546        -0.066366         0.910880
 C         0.048922         0.141982        -0.200302
 C         2.224195        -1.104892         0.832270
 O         3.168778        -0.052133         0.441228
 H         1.682890         2.823119         1.085500
 H         3.606334         2.608425         1.198620
 H         2.789616         2.206366        -0.289842
 H         3.848074         0.406147         2.921907
 H         2.152970         0.812643         3.427743
 H         2.238862        -1.799666         3.115542
 H        -1.012546         0.017232         0.117252
 H        -0.036995         1.170151        -0.567503
 H         0.362327        -0.327884        -1.148609
 H         2.273990        -1.997362         0.279431
