19
Iteration:  2359
 C         2.067441         2.409165         1.093883
 C         2.226224         0.994940         1.353713
 C         2.320379         0.345871         2.892572
 C         1.995485        -1.053617         2.347421
 O         0.660485        -0.936238         1.821785
 C         1.246159        -0.168506         0.706262
 C         0.389396         0.116004        -0.512354
 C         2.622552        -0.952186         0.849561
 O         3.376450         0.224546         0.648040
 H         1.172054         2.576810         1.666549
 H         2.867794         2.965761         1.569310
 H         1.955056         2.798213         0.027917
 H         3.396204         0.542853         3.164497
 H         1.656269         0.864751         3.579634
 H         2.083696        -1.960529         2.963966
 H        -0.287529        -0.745225        -0.702393
 H        -0.236335         0.987289        -0.172218
 H         0.916725         0.335462        -1.399305
 H         3.050049        -1.843144         0.347558
