19
Iteration:  4449charge 0 multiplicity 1
 C         1.362374         2.307182         1.335891
 C         1.848331         0.902163         1.622634
 C         1.715136         0.093675         2.951283
 C         2.189486        -1.218986         2.131831
 O         1.008848        -1.404033         1.246393
 C         1.516642        -0.209590         0.542225
 C         0.985930         0.223446        -0.871239
 C         3.006192        -0.544407         0.958944
 O         3.273806         0.806378         1.274003
 H         0.256068         2.393821         1.489659
 H         1.714903         3.056853         2.007537
 H         1.600586         2.670556         0.350835
 H         2.323956         0.360559         3.838621
 H         0.767665        -0.087598         3.401835
 H         2.548412        -1.985535         2.817866
 H         0.728908        -0.594304        -1.542934
 H         0.081644         0.787394        -0.563858
 H         1.796715         0.962693        -1.199251
 H         3.756841        -1.205676         0.351363
