19
Iteration:   514charge 0 multiplicity 1
 C         2.686457         2.222247         0.621795
 C         2.335627         0.900288         1.213971
 C         2.665289         0.336374         2.668010
 C         1.983323        -0.951884         2.439184
 O         0.561616        -0.633739         2.167800
 C         1.072037        -0.084796         0.895749
 C        -0.008702         0.321887        -0.127483
 C         2.344535        -1.096108         0.863241
 O         3.220855        -0.053896         0.470693
 H         2.341578         3.115462         1.236550
 H         3.737421         2.288087         0.362709
 H         2.217784         2.458303        -0.333751
 H         3.744268         0.254021         2.908253
 H         2.276196         0.858109         3.501419
 H         2.116232        -1.629020         3.211776
 H        -0.506511        -0.467200        -0.591376
 H        -0.722135         0.844287         0.503691
 H         0.374057         1.013469        -0.880586
 H         2.520828        -2.074833         0.315438
