19
Iteration:  2991charge 0 multiplicity 1
 C         1.598335         2.390746         1.417556
 C         1.983441         0.892922         1.535163
 C         1.950867         0.346712         2.921961
 C         2.009690        -1.090809         2.234503
 O         0.826566        -1.285081         1.483501
 C         1.434128        -0.310099         0.586149
 C         0.908621         0.091023        -0.759706
 C         2.794877        -0.667870         0.802739
 O         3.357886         0.605799         1.006064
 H         2.030816         2.843001         2.272042
 H         2.218773         2.897950         0.659627
 H         0.594213         2.652476         1.260118
 H         2.673908         0.687292         3.565175
 H         0.923089         0.524583         3.422930
 H         2.483918        -2.008202         2.619398
 H         1.530582        -0.409667        -1.492993
 H        -0.098001        -0.394680        -0.922018
 H         0.779875         1.183559        -1.013943
 H         3.331586        -1.503243         0.274764
