19
Iteration:  1008charge 0 multiplicity 1
 C         2.598334         2.279734         0.785210
 C         2.392207         0.844975         1.198808
 C         2.642864         0.448970         2.656040
 C         2.049003        -0.955787         2.430703
 O         0.611705        -0.625886         2.202584
 C         1.063250        -0.123457         0.918995
 C         0.103156         0.357469        -0.156313
 C         2.260894        -1.112104         0.825243
 O         3.180702        -0.156181         0.369444
 H         2.570323         3.121819         1.457561
 H         3.576572         2.373478         0.302485
 H         1.862711         2.496498         0.028212
 H         3.711621         0.472639         2.996187
 H         2.004211         1.104249         3.371475
 H         2.140619        -1.590698         3.234609
 H        -0.836598        -0.285259        -0.225234
 H        -0.202579         1.402467        -0.103009
 H         0.549865         0.112965        -1.084207
 H         2.194160        -2.142334         0.307534
