19
Iteration:  3375
 C         1.320895         2.347220         1.541561
 C         1.923461         0.947084         1.547143
 C         1.675720         0.159606         2.835199
 C         2.054472        -1.150893         2.160932
 O         0.986752        -1.281286         1.101017
 C         1.629997        -0.308931         0.413902
 C         1.010098         0.019345        -0.918429
 C         3.007248        -0.566271         1.020305
 O         3.351083         0.805136         1.439710
 H         1.062006         2.630851         0.492474
 H         0.383908         2.396899         2.073843
 H         2.055287         3.079157         1.949221
 H         2.367722         0.395105         3.698981
 H         0.711295         0.220797         3.220954
 H         2.088201        -2.004161         2.857907
 H         0.156115        -0.667431        -1.040797
 H         0.498709         0.941620        -0.864790
 H         1.600375        -0.025788        -1.799283
 H         3.802399        -1.270027         0.885923
