19
Iteration:  4926charge 0 multiplicity 1
 C         1.122450         2.314369         1.403015
 C         1.824886         0.919679         1.626650
 C         1.899602         0.065962         2.905596
 C         2.260946        -1.247608         2.084614
 O         1.019253        -1.429119         1.211305
 C         1.587158        -0.227175         0.530917
 C         0.870556         0.196582        -0.770397
 C         2.992647        -0.539490         0.875630
 O         3.370495         0.904445         1.324687
 H         0.055778         2.149960         1.101579
 H         1.012011         2.819905         2.336194
 H         1.557221         3.085092         0.763140
 H         2.615303         0.359461         3.669475
 H         0.914744        -0.155307         3.408640
 H         2.599220        -2.043960         2.690894
 H        -0.147535         0.552609        -0.621026
 H         1.406696         1.047649        -1.314159
 H         0.821462        -0.725590        -1.437171
 H         3.825499        -1.041524         0.291735
