19
Iteration:  2623charge 0 multiplicity 1
 C         2.048534         2.613557         1.233480
 C         2.145612         1.074449         1.509782
 C         2.133617         0.312534         2.848675
 C         2.022559        -1.164837         2.186149
 O         0.667939        -1.121780         1.672186
 C         1.296488        -0.245671         0.709739
 C         0.473076        -0.079838        -0.623037
 C         2.724218        -0.865731         0.807172
 O         3.393967         0.468043         0.882623
 H         0.968743         2.866616         1.054588
 H         2.172003         3.209618         2.174207
 H         2.653261         2.843275         0.376862
 H         3.117786         0.432334         3.371935
 H         1.280889         0.577401         3.549944
 H         2.199658        -2.070595         2.759658
 H        -0.566552        -0.187343        -0.237923
 H         0.521125         0.861012        -1.245477
 H         0.831991        -0.867145        -1.465080
 H         3.279113        -1.500331         0.062021
