19
Iteration:  1939charge 0 multiplicity 1
 C         2.399866         2.360507         0.875462
 C         2.298280         0.906733         1.236173
 C         2.488912         0.355415         2.647388
 C         2.007531        -1.065512         2.357834
 O         0.651898        -0.665046         2.002982
 C         1.213316        -0.082630         0.811539
 C         0.085969         0.168674        -0.253632
 C         2.365291        -1.026076         0.920120
 O         3.379835         0.003179         0.626279
 H         1.765229         2.776590         0.102540
 H         2.052834         3.056832         1.670932
 H         3.421368         2.483729         0.398950
 H         3.603231         0.613048         2.792455
 H         1.961861         0.863671         3.367507
 H         2.078592        -1.926093         3.025670
 H        -0.793075         0.325246         0.328724
 H         0.145669         0.991558        -0.934548
 H        -0.057484        -0.707781        -0.888684
 H         2.579287        -1.856987         0.273847
