19
Iteration:  3744
 C         1.599689         2.589778         1.712480
 C         1.835176         1.043473         1.605161
 C         1.600991         0.127483         2.845939
 C         2.055554        -1.192397         2.172684
 O         0.972109        -1.379552         1.111571
 C         1.513281        -0.188947         0.437660
 C         1.028060        -0.220745        -0.989211
 C         2.956777        -0.610536         0.949487
 O         3.261774         0.820308         1.338910
 H         0.778205         2.907868         2.373955
 H         2.421803         2.917969         2.334640
 H         1.504448         3.100526         0.681346
 H         2.514933         0.380572         3.512048
 H         0.655294         0.213394         3.250984
 H         2.004580        -2.184031         2.727086
 H         1.345794        -1.177235        -1.516136
 H         0.017937         0.117077        -1.055242
 H         1.626542         0.533577        -1.438202
 H         3.892193        -0.996645         0.444666
