19
Iteration:  1375charge 0 multiplicity 1
 C         2.642234         2.433863         0.839037
 C         2.440914         0.858604         1.098367
 C         2.609453         0.375180         2.655410
 C         2.017888        -0.956040         2.461088
 O         0.650655        -0.469895         2.167809
 C         1.101592        -0.085071         0.885047
 C        -0.006689         0.165338        -0.121199
 C         2.255633        -1.163316         0.846017
 O         3.179949        -0.222029         0.373215
 H         1.761923         2.986245         1.137185
 H         3.502187         2.839097         1.412831
 H         2.750732         2.623942        -0.235716
 H         3.803224         0.374724         2.790069
 H         2.202947         1.156928         3.255848
 H         2.093536        -1.741694         3.246548
 H        -0.124147        -0.682110        -0.920560
 H        -0.934449         0.356246         0.438500
 H         0.265742         1.124568        -0.693243
 H         2.223032        -2.077407         0.285748
