19
Iteration:  1514charge 0 multiplicity 1
 C         2.562640         2.248298         0.874211
 C         2.358753         0.807965         1.214248
 C         2.635049         0.439186         2.656966
 C         2.020233        -0.947450         2.463080
 O         0.627837        -0.516772         2.190692
 C         1.136340        -0.047156         0.844216
 C         0.059955         0.193611        -0.179663
 C         2.242839        -1.028259         0.792144
 O         3.246477        -0.150583         0.343020
 H         1.947955         2.988754         1.409520
 H         3.602040         2.537313         1.186856
 H         2.362621         2.463626        -0.269010
 H         3.771496         0.530135         2.679771
 H         2.188941         1.070743         3.534088
 H         2.045894        -1.809355         3.193583
 H        -0.694029        -0.400401         0.320487
 H        -0.196135         1.256523        -0.404258
 H         0.189131        -0.436339        -1.130860
 H         2.171777        -2.078960         0.295997
