19
Iteration:  4105charge 0 multiplicity 1
 C         1.518445         2.419670         1.502094
 C         1.829200         0.942942         1.579355
 C         1.765923         0.157504         2.914030
 C         2.063430        -1.193944         2.227416
 O         0.824529        -1.285058         1.300262
 C         1.488943        -0.211509         0.541566
 C         1.170287         0.092844        -0.906370
 C         2.874777        -0.675067         0.966227
 O         3.284602         0.726134         1.125032
 H         0.440084         2.518488         1.304762
 H         1.865857         2.831662         2.476523
 H         2.147797         2.783529         0.731016
 H         2.552406         0.467236         3.579579
 H         0.712348         0.060685         3.311137
 H         2.353410        -2.143581         2.679866
 H         1.736659        -0.556363        -1.625399
 H         0.104600        -0.000630        -1.237731
 H         1.560519         1.186078        -1.158506
 H         3.820743        -1.152382         0.579829
