19
Iteration:  2743
 C         1.888209         2.537362         1.224891
 C         2.092781         1.035791         1.493471
 C         2.108561         0.253669         2.875821
 C         2.046770        -1.140331         2.219331
 O         0.729591        -1.173224         1.561635
 C         1.327772        -0.181148         0.594787
 C         0.575669        -0.023386        -0.625609
 C         2.769768        -0.784465         0.855283
 O         3.380517         0.493605         0.993136
 H         2.775934         3.079387         1.706479
 H         1.952844         2.724713         0.103847
 H         0.851459         2.781155         1.528301
 H         2.850527         0.516907         3.621459
 H         1.056581         0.153296         3.409337
 H         2.427322        -2.026366         2.750072
 H         1.192379         0.069683        -1.480501
 H        -0.258445        -0.747494        -0.601678
 H        -0.020960         0.979600        -0.511470
 H         3.277249        -1.587095         0.280474
