19
Iteration:  1745
 C         2.469700         2.239146         0.733686
 C         2.425176         0.862128         1.275733
 C         2.608691         0.372094         2.679768
 C         2.020520        -0.950708         2.423935
 O         0.633293        -0.702783         2.186083
 C         1.116219        -0.000454         0.838716
 C         0.041368         0.286896        -0.259590
 C         2.289511        -1.047630         0.843549
 O         3.296593        -0.059190         0.488430
 H         2.924602         2.948052         1.359294
 H         3.076711         2.318750        -0.154948
 H         1.471435         2.516271         0.480509
 H         3.651244         0.466095         3.133528
 H         2.033006         0.887456         3.365894
 H         2.350184        -1.847309         2.956233
 H         0.078445         1.290948        -0.613283
 H         0.153909        -0.503483        -0.927459
 H        -0.976454         0.392413         0.180552
 H         2.276225        -1.980569         0.342846
