19
Iteration:   688
 C         2.584699         2.302827         0.749910
 C         2.404319         0.870114         1.129513
 C         2.578785         0.484566         2.572913
 C         1.999011        -0.933191         2.413406
 O         0.655328        -0.612553         2.171724
 C         1.116604        -0.066437         0.880892
 C         0.006812         0.315867        -0.081458
 C         2.203969        -1.145426         0.892485
 O         3.320450        -0.265857         0.439024
 H         2.451791         2.953155         1.663540
 H         3.625256         2.631809         0.567635
 H         1.988195         2.793320        -0.021441
 H         3.676018         0.572477         2.987793
 H         1.827967         1.069691         3.114801
 H         2.210029        -1.732591         3.087412
 H        -0.255416        -0.478657        -0.759213
 H        -0.945153         0.762282         0.505310
 H         0.352890         1.159101        -0.801825
 H         2.296645        -2.190284         0.530782
