19
Iteration:  2478charge 0 multiplicity 1
 C         2.048551         2.455922         1.301337
 C         2.272797         0.946731         1.353689
 C         2.271819         0.443603         2.828835
 C         2.036495        -1.034028         2.293015
 O         0.649158        -1.059723         1.764229
 C         1.270399        -0.175141         0.613373
 C         0.345291        -0.018582        -0.600970
 C         2.597419        -0.868687         0.807890
 O         3.419168         0.310907         0.790261
 H         2.853437         3.162570         1.370294
 H         1.394386         2.740710         0.503813
 H         1.450840         2.736515         2.216589
 H         3.308756         0.649111         3.252421
 H         1.474965         0.827528         3.453222
 H         2.246416        -1.898132         2.965969
 H         0.988887         0.715945        -1.224120
 H         0.358656        -0.982476        -1.272821
 H        -0.666127         0.277988        -0.329028
 H         2.961793        -1.811112         0.360684
