19
Iteration:  2996
 C         1.615997         2.388828         1.399107
 C         1.989960         0.884570         1.571406
 C         1.987860         0.326140         2.891897
 C         2.007924        -1.088191         2.266106
 O         0.820299        -1.282058         1.456088
 C         1.398598        -0.299021         0.553588
 C         0.911675         0.097723        -0.771092
 C         2.812582        -0.675026         0.852641
 O         3.324246         0.622231         1.014238
 H         2.139961         2.965066         2.245005
 H         1.944263         2.933498         0.474681
 H         0.488914         2.576260         1.280235
 H         2.855697         0.569107         3.640947
 H         1.023443         0.390052         3.355003
 H         2.435716        -1.985816         2.690505
 H         1.420573        -0.478139        -1.582382
 H        -0.084411        -0.337701        -0.824041
 H         0.977746         1.183690        -0.984036
 H         3.368416        -1.442019         0.353232
