19
Iteration:  1460charge 0 multiplicity 1
 C         2.540384         2.204214         0.701560
 C         2.332888         0.809757         1.216126
 C         2.658833         0.407663         2.689645
 C         1.971099        -0.923102         2.436391
 O         0.656550        -0.629747         2.174400
 C         1.110767        -0.046665         0.904974
 C         0.088774         0.307322        -0.141237
 C         2.272456        -1.072249         0.824070
 O         3.233947        -0.097586         0.442257
 H         2.563451         2.960272         1.483505
 H         3.498373         2.136387         0.146998
 H         1.938050         2.563036        -0.222068
 H         3.772553         0.430019         2.832198
 H         2.137712         0.883465         3.438574
 H         1.987598        -1.591424         3.318515
 H        -0.473981        -0.494763        -0.547418
 H        -0.715653         0.953731         0.084964
 H         0.611409         1.008307        -0.826873
 H         2.297182        -2.022152         0.192392
