19
Iteration:  4112charge 0 multiplicity 1
 C         1.516698         2.358914         1.478552
 C         1.855003         0.937902         1.566698
 C         1.768573         0.144978         2.905328
 C         2.065410        -1.205527         2.177163
 O         0.826099        -1.327829         1.331704
 C         1.469443        -0.214870         0.496472
 C         1.185784         0.132798        -0.906527
 C         2.901818        -0.605727         0.994369
 O         3.278504         0.735883         1.158301
 H         0.467119         2.652713         1.262049
 H         1.936425         3.067795         2.192779
 H         2.049519         2.591870         0.512287
 H         2.543136         0.500087         3.658090
 H         0.883800         0.039640         3.464012
 H         1.971785        -2.112365         2.794468
 H         1.683552        -0.467577        -1.678830
 H         0.124501         0.208210        -1.005555
 H         1.412647         1.156811        -0.907728
 H         3.677488        -1.309260         0.660049
