19
Iteration:  4339
 C         1.505707         2.467236         1.518517
 C         1.807471         0.962247         1.560858
 C         1.728508         0.090988         2.946108
 C         2.081852        -1.194720         2.124933
 O         1.029744        -1.401470         1.187005
 C         1.502627        -0.257627         0.504463
 C         0.966265         0.047486        -0.896905
 C         2.932766        -0.517065         0.934301
 O         3.276836         0.794919         1.348407
 H         0.457641         2.681869         1.570350
 H         2.138855         2.988307         2.167940
 H         1.909578         2.791059         0.535793
 H         2.396914         0.531390         3.735238
 H         0.716858         0.072607         3.262879
 H         2.416442        -2.039304         2.811982
 H         1.588899         0.814085        -1.429394
 H         1.185488        -0.876134        -1.491720
 H        -0.091439         0.185219        -1.111545
 H         3.655115        -1.186088         0.415046
