19
Iteration:  2959charge 0 multiplicity 1
 C         1.672932         2.528308         1.416364
 C         2.059488         1.035660         1.490025
 C         1.986390         0.194989         2.865402
 C         2.046906        -1.156097         2.188938
 O         0.797852        -1.193466         1.442444
 C         1.465475        -0.294496         0.556856
 C         0.716885        -0.008079        -0.765030
 C         2.850015        -0.730717         0.933787
 O         3.338876         0.619908         1.066815
 H         1.332654         2.881322         2.370311
 H         2.604128         2.971241         1.097648
 H         0.858982         2.734670         0.787166
 H         2.666333         0.483987         3.596610
 H         0.902409         0.397793         3.225354
 H         2.369118        -2.076480         2.704744
 H         1.433037         0.231705        -1.537646
 H         0.280435        -1.026499        -1.008965
 H        -0.190317         0.683268        -0.832856
 H         3.561886        -1.496431         0.550053
