19
Iteration:  4616
 C         1.209613         2.257219         1.414384
 C         1.920701         0.903776         1.623781
 C         1.796418         0.122906         2.965718
 C         2.106698        -1.213457         2.081673
 O         1.021850        -1.340747         1.128936
 C         1.591057        -0.202885         0.499835
 C         0.852587         0.133924        -0.816277
 C         3.082972        -0.505989         0.947589
 O         3.364860         0.835227         1.363170
 H         0.241713         2.175150         1.823449
 H         1.754724         3.087279         1.910134
 H         1.358866         2.352945         0.374000
 H         2.418507         0.316792         3.822119
 H         0.735042         0.107950         3.365826
 H         2.261459        -2.039207         2.768123
 H         1.112000         1.077006        -1.446824
 H         1.108678        -0.664577        -1.576130
 H        -0.231353         0.133161        -0.678254
 H         3.927515        -0.959234         0.500459
