19
Iteration:    42charge 0 multiplicity 1
 C         2.586321         2.169501         0.645332
 C         2.420391         0.858487         1.235085
 C         2.761368         0.396201         2.656354
 C         1.994747        -0.919531         2.397260
 O         0.653747        -0.528992         2.076389
 C         1.152872        -0.012720         0.841188
 C        -0.098151         0.341080        -0.037755
 C         2.192849        -1.112934         0.818708
 O         3.255029        -0.193978         0.524631
 H         1.721239         2.808328         1.086529
 H         3.502873         2.775671         0.935055
 H         2.514441         1.943278        -0.511054
 H         3.936297         0.385752         2.897163
 H         2.315166         0.945545         3.508446
 H         1.990730        -1.664902         3.135951
 H        -0.384563        -0.485682        -0.611535
 H        -0.935429         0.513811         0.715071
 H         0.058962         1.208237        -0.545010
 H         2.187428        -2.067336         0.436347
