19
Iteration:  1570charge 0 multiplicity 1
 C         2.538198         2.246791         0.718648
 C         2.380901         0.848777         1.255173
 C         2.682681         0.457799         2.630620
 C         2.050026        -0.936993         2.428227
 O         0.584446        -0.695550         2.092498
 C         1.124218        -0.045477         0.893246
 C         0.091356         0.329249        -0.093584
 C         2.236913        -1.056517         0.890439
 O         3.205602        -0.130213         0.394593
 H         1.597398         2.802671         0.501090
 H         3.129240         2.854631         1.512722
 H         3.240363         2.297356        -0.193909
 H         3.847061         0.374938         2.861818
 H         2.136270         1.027398         3.371740
 H         2.194954        -1.804162         3.197432
 H        -0.876686         0.160915         0.472857
 H         0.103117         1.361249        -0.424520
 H         0.225866        -0.465688        -0.918845
 H         2.075327        -2.087117         0.489821
