19
Iteration:  1018
 C         2.560660         2.310962         0.738285
 C         2.404816         0.848045         1.231284
 C         2.749658         0.453992         2.635201
 C         1.980632        -0.989794         2.455504
 O         0.603052        -0.629262         2.151134
 C         1.057793        -0.057863         0.956630
 C         0.080364         0.287737        -0.180884
 C         2.192965        -1.073485         0.813846
 O         3.233634        -0.154357         0.439965
 H         2.471058         2.820625         1.657711
 H         3.562893         2.456200         0.261493
 H         1.860878         2.640957        -0.003391
 H         3.855519         0.315595         2.769949
 H         2.302592         1.118277         3.402252
 H         2.073517        -1.777383         3.100530
 H        -0.891942        -0.261312         0.020774
 H        -0.180534         1.331618        -0.294788
 H         0.496718         0.023217        -1.125031
 H         2.304262        -2.051514         0.298470
