19
Iteration:  4988
 C         1.412348         2.507642         1.688931
 C         1.733543         1.048320         1.628347
 C         1.736920         0.048675         2.792521
 C         2.252053        -1.212927         2.056642
 O         1.154343        -1.500496         1.214260
 C         1.489259        -0.243197         0.452299
 C         0.881839        -0.037106        -0.872733
 C         2.964042        -0.440396         0.961172
 O         3.189985         0.851214         1.240857
 H         0.612538         2.515134         2.456621
 H         2.265679         2.965524         2.247018
 H         1.228082         3.005796         0.639624
 H         2.529963         0.248943         3.548708
 H         0.748250         0.045902         3.257024
 H         2.692789        -2.066997         2.586838
 H        -0.025205        -0.588641        -1.025559
 H         0.795760         1.002624        -1.189954
 H         1.718296        -0.448775        -1.491912
 H         3.866703        -0.901744         0.535111
