19
Iteration:  2837charge 0 multiplicity 1
 C         1.722767         2.397183         1.303165
 C         2.080169         0.931875         1.499833
 C         2.081872         0.247202         2.924319
 C         2.069749        -1.169652         2.220262
 O         0.731214        -1.038506         1.557247
 C         1.411690        -0.166642         0.616927
 C         0.656079         0.003542        -0.726098
 C         2.783743        -0.770769         0.854839
 O         3.373635         0.553071         0.989238
 H         1.485387         2.418228         0.304437
 H         0.755227         2.553087         1.797051
 H         2.354194         3.203666         1.642978
 H         3.035664         0.559036         3.385791
 H         1.243387         0.365345         3.520794
 H         2.210720        -2.136987         2.761630
 H        -0.269746        -0.637216        -0.908771
 H         0.614574         1.054622        -1.043317
 H         1.346228        -0.405344        -1.412876
 H         3.453970        -1.434846         0.231501
