19
Iteration:  2656charge 0 multiplicity 1
 C         1.920201         2.363626         1.290918
 C         2.056996         0.934282         1.486440
 C         2.144347         0.412520         2.854234
 C         2.096831        -1.078120         2.245005
 O         0.727264        -1.060364         1.641262
 C         1.317342        -0.203642         0.674877
 C         0.629250         0.001918        -0.656311
 C         2.651912        -0.840677         0.823687
 O         3.336843         0.452040         0.850060
 H         1.000159         2.623724         1.863706
 H         2.794205         2.932519         1.720302
 H         1.900011         2.775014         0.311642
 H         3.160972         0.542562         3.240968
 H         1.390750         0.524009         3.710794
 H         2.284247        -1.977148         2.809183
 H        -0.132420         0.806228        -0.596130
 H         1.350532         0.309727        -1.443429
 H        -0.076000        -0.934824        -0.821066
 H         3.075034        -1.507738         0.053781
