19
Iteration:  2249
 C         2.196621         2.397033         1.018539
 C         2.267027         0.921516         1.377203
 C         2.384761         0.373656         2.792945
 C         2.022318        -1.048864         2.323228
 O         0.646208        -0.847272         1.896702
 C         1.282482        -0.200147         0.735668
 C         0.206896         0.123196        -0.423016
 C         2.574570        -0.952395         0.861378
 O         3.350964         0.185674         0.615063
 H         2.918359         2.673200         0.203635
 H         1.162837         2.548915         0.720338
 H         2.473246         3.070925         1.876078
 H         3.283230         0.566665         3.311545
 H         1.497761         0.708266         3.462447
 H         2.085516        -1.842699         3.043373
 H         0.406750         1.114905        -0.911324
 H         0.177492        -0.596648        -1.241110
 H        -0.724083         0.168392         0.084116
 H         3.125219        -1.759238         0.368239
