19
Iteration:  3205
 C         1.444235         2.369711         1.374178
 C         1.811139         0.922272         1.582521
 C         1.728025         0.175301         2.930476
 C         2.165051        -1.231612         2.154147
 O         0.949427        -1.376484         1.376507
 C         1.469754        -0.178660         0.564869
 C         0.991199         0.107296        -0.867916
 C         2.955198        -0.569764         0.945703
 O         3.350959         0.761213         1.175917
 H         0.568081         2.614440         1.920611
 H         2.365368         2.916591         1.658086
 H         1.350338         2.764410         0.342291
 H         2.371598         0.383886         3.852143
 H         0.659115         0.137770         3.247899
 H         2.369858        -2.123576         2.740487
 H         1.978126         0.118210        -1.512313
 H         0.197686        -0.554749        -1.274208
 H         0.621093         1.134625        -0.953971
 H         3.521844        -1.242511         0.274368
