19
Iteration:  1427charge 0 multiplicity 1
 C         2.583223         2.370496         0.611712
 C         2.482179         0.920722         1.212995
 C         2.671804         0.368934         2.750457
 C         1.985780        -0.968767         2.369571
 O         0.590690        -0.632648         2.199568
 C         1.075035        -0.087187         0.896598
 C         0.077064         0.251928        -0.127382
 C         2.206947        -1.072189         0.866890
 O         3.230737        -0.173607         0.449841
 H         2.462821         3.218368         1.295692
 H         3.639684         2.418552         0.342856
 H         1.901425         2.497305        -0.301836
 H         3.694564         0.527667         2.970414
 H         2.037592         0.811128         3.431999
 H         2.033360        -1.679712         3.155138
 H        -0.066652        -0.393132        -0.956673
 H        -0.802899         0.422928         0.404524
 H         0.413926         1.154339        -0.648709
 H         2.126229        -2.053606         0.291511
