19
Iteration:  3097charge 0 multiplicity 1
 C         1.682741         2.444353         1.464528
 C         1.918225         0.971284         1.536847
 C         1.846149         0.294580         2.907106
 C         2.076236        -1.164379         2.188226
 O         0.923952        -1.411025         1.319258
 C         1.466389        -0.283050         0.522259
 C         0.856320        -0.015882        -0.818250
 C         2.860264        -0.578462         0.935289
 O         3.240655         0.731167         1.133139
 H         2.116347         2.879875         0.583382
 H         0.583927         2.679906         1.569898
 H         2.265110         2.914919         2.325233
 H         2.606484         0.626913         3.662426
 H         0.851844         0.369859         3.317650
 H         2.420490        -2.043520         2.749978
 H        -0.189333         0.374653        -0.768241
 H         1.451463         0.768842        -1.292327
 H         0.864388        -0.890839        -1.400160
 H         3.498898        -1.386886         0.515354
