19
Iteration:  1347charge 0 multiplicity 1
 C         2.600407         2.215819         0.705383
 C         2.407803         0.852530         1.201915
 C         2.716926         0.364125         2.707678
 C         2.054907        -0.918305         2.328881
 O         0.586995        -0.570175         2.209730
 C         1.053078        -0.034499         0.936363
 C         0.086022         0.206845        -0.144519
 C         2.142825        -1.046786         0.845129
 O         3.217622        -0.077584         0.435956
 H         1.582985         2.694383         0.672600
 H         3.298413         2.820721         1.322029
 H         3.031198         2.214565        -0.318667
 H         3.729836         0.227385         2.694396
 H         2.486539         1.183165         3.457901
 H         2.325186        -1.852868         2.899484
 H        -0.202744        -0.761979        -0.474041
 H        -0.797260         0.763993         0.252127
 H         0.559363         0.868256        -0.820048
 H         1.932462        -2.031269         0.358345
