19
Iteration:  4120charge 0 multiplicity 1
 C         1.516834         2.349944         1.364301
 C         1.876978         0.928032         1.594738
 C         1.794114         0.109034         2.884142
 C         1.977256        -1.186899         2.161359
 O         0.860877        -1.341314         1.321408
 C         1.499475        -0.294833         0.526128
 C         1.145183         0.215651        -0.879471
 C         2.937138        -0.609574         0.998474
 O         3.279747         0.751264         1.253303
 H         0.440468         2.577228         1.448865
 H         2.030012         3.121754         1.981023
 H         1.779281         2.660612         0.270722
 H         2.616061         0.478646         3.527526
 H         0.833026         0.195204         3.461808
 H         2.126965        -2.075339         2.892693
 H         1.548261        -0.368486        -1.689763
 H         0.022876         0.236894        -0.924945
 H         1.519553         1.218288        -0.987339
 H         3.449344        -1.304764         0.369847
