19
Iteration:  2745
 C         1.889284         2.526928         1.234056
 C         2.089086         1.051286         1.494114
 C         2.112882         0.255826         2.867483
 C         2.042450        -1.141068         2.222176
 O         0.739289        -1.176716         1.548959
 C         1.325647        -0.186983         0.614243
 C         0.574228        -0.019262        -0.624197
 C         2.784076        -0.780504         0.848064
 O         3.370438         0.485682         0.987818
 H         2.820483         3.026788         1.680741
 H         1.878348         2.703958         0.155127
 H         0.911484         2.847271         1.550554
 H         2.807831         0.532817         3.661188
 H         1.055372         0.146943         3.362289
 H         2.378330        -1.961753         2.875469
 H         1.195667        -0.003925        -1.523194
 H        -0.282169        -0.745325        -0.586117
 H        -0.012463         1.020050        -0.573276
 H         3.261258        -1.545880         0.275091
