19
Iteration:  4743
 C         1.137764         2.281771         1.601844
 C         1.857507         0.940752         1.682717
 C         1.872032         0.074729         2.871096
 C         2.186077        -1.207804         2.131063
 O         1.044352        -1.318586         1.195983
 C         1.549634        -0.162074         0.536439
 C         0.974229         0.007615        -0.867709
 C         2.982285        -0.466623         0.869280
 O         3.306300         0.865826         1.235590
 H         0.040340         1.994063         1.716640
 H         1.617797         2.963951         2.279704
 H         1.258772         2.634709         0.578844
 H         2.625970         0.410768         3.564957
 H         0.867227         0.087968         3.344900
 H         2.256038        -2.192252         2.524744
 H         0.747090        -0.900727        -1.314640
 H         0.179590         0.750029        -1.047811
 H         1.850841         0.346161        -1.416881
 H         3.822036        -1.021618         0.306033
