19
Iteration:   584
 C         2.475891         2.273969         0.942528
 C         2.365564         0.808325         1.088884
 C         2.734799         0.364541         2.499293
 C         1.975699        -0.842186         2.473252
 O         0.613510        -0.446632         2.130430
 C         1.134747        -0.166863         0.898106
 C         0.159608         0.290680        -0.167208
 C         2.267573        -1.163348         0.881477
 O         3.166072        -0.164225         0.405921
 H         1.588603         2.727928         1.342874
 H         3.440410         2.621457         1.411052
 H         2.490182         2.713775        -0.084902
 H         3.791597         0.276673         2.459822
 H         2.560038         1.002612         3.449623
 H         1.863906        -1.600095         3.395016
 H        -0.820424        -0.291617         0.141698
 H        -0.144739         1.352940        -0.098812
 H         0.478251        -0.126373        -1.181527
 H         2.476934        -2.247624         0.521776
