19
Iteration:   673charge 0 multiplicity 1
 C         2.666553         2.284363         0.692265
 C         2.430077         0.826651         1.128846
 C         2.632505         0.480029         2.622481
 C         2.038608        -0.960631         2.472970
 O         0.569651        -0.652466         2.167165
 C         1.060987        -0.156774         0.854015
 C         0.035965         0.354968        -0.107020
 C         2.305906        -1.130912         0.859242
 O         3.203432        -0.097331         0.471321
 H         2.188320         2.907946         1.490254
 H         3.724715         2.345278         0.516599
 H         2.233514         2.387535        -0.316641
 H         3.664693         0.611178         2.923098
 H         1.954101         1.034341         3.424834
 H         2.129664        -1.717254         3.276558
 H        -0.593778        -0.409162        -0.636717
 H        -0.737310         0.827236         0.589835
 H         0.369361         1.116679        -0.751462
 H         2.218791        -2.048434         0.333553
