19
Iteration:  4220
 C         1.637223         2.496585         1.618998
 C         1.824904         1.036374         1.627566
 C         1.718113         0.217999         2.927062
 C         2.085822        -1.241224         2.152017
 O         0.851868        -1.393183         1.248225
 C         1.439248        -0.266741         0.488428
 C         1.137279        -0.069173        -1.004070
 C         2.875343        -0.539631         0.950645
 O         3.258652         0.785166         1.220979
 H         0.530295         2.635637         1.876716
 H         2.279140         3.122299         2.254310
 H         1.760199         2.934993         0.540152
 H         2.508974         0.205682         3.764859
 H         0.742303         0.025272         3.258649
 H         2.357165        -2.206011         2.763845
 H         0.240536        -0.508305        -1.461033
 H         1.125442         0.986432        -1.283097
 H         2.026563        -0.562248        -1.297114
 H         3.619247        -1.072197         0.285508
