19
Iteration:  4324
 C         1.497004         2.368400         1.341804
 C         1.887813         0.970500         1.690508
 C         1.687287         0.104039         2.901431
 C         2.142575        -1.178018         2.168447
 O         0.943796        -1.419820         1.215956
 C         1.539214        -0.240548         0.478593
 C         0.998487         0.131945        -0.890240
 C         2.947777        -0.559863         0.979933
 O         3.261693         0.799808         1.328207
 H         0.419518         2.551003         1.493796
 H         1.915411         3.090869         2.134700
 H         1.822205         2.707779         0.340011
 H         2.515551         0.304680         3.590100
 H         0.604883        -0.071251         3.294160
 H         2.466085        -2.174096         2.582175
 H         1.140378         1.244695        -0.901173
 H         1.333318        -0.484943        -1.775629
 H        -0.079197         0.049906        -0.644067
 H         3.756013        -1.017063         0.473330
