19
Iteration:  3704charge 0 multiplicity 1
 C         1.468565         2.404359         1.552478
 C         1.924563         0.961152         1.576744
 C         1.625940         0.124327         2.859643
 C         2.036456        -1.221493         2.148510
 O         0.934412        -1.242174         1.144144
 C         1.584708        -0.150813         0.484059
 C         0.996134        -0.081781        -0.909826
 C         3.013990        -0.600503         0.912766
 O         3.332611         0.797257         1.415126
 H         0.415225         2.579298         1.746456
 H         2.114088         3.008207         2.226175
 H         1.681109         2.766981         0.578332
 H         2.222776         0.511907         3.665884
 H         0.558120        -0.003321         3.181982
 H         2.355634        -2.015773         2.809624
 H         1.055934        -0.988037        -1.536389
 H        -0.116445        -0.076070        -0.797033
 H         1.428013         0.812536        -1.449084
 H         3.796386        -1.252533         0.471009
