19
Iteration:  3326charge 0 multiplicity 1
 C         1.323341         2.318237         1.405971
 C         1.835337         0.901077         1.641646
 C         1.857330         0.129439         2.966518
 C         2.116398        -1.189492         2.163898
 O         0.834187        -1.338413         1.245112
 C         1.540384        -0.270624         0.542777
 C         1.246060         0.174382        -0.912460
 C         2.941656        -0.580588         0.971135
 O         3.205492         0.778068         1.233516
 H         2.015933         3.004484         0.891995
 H         0.432867         2.098333         0.766578
 H         0.999039         2.891118         2.273419
 H         2.563184         0.643358         3.638469
 H         0.825562         0.141415         3.575824
 H         2.497056        -1.992185         2.806619
 H         0.445162        -0.434983        -1.439655
 H         0.802038         1.220855        -1.103078
 H         2.209129         0.084373        -1.491745
 H         3.825421        -1.043567         0.410277
