19
Iteration:  4758charge 0 multiplicity 1
 C         1.157426         2.338146         1.501243
 C         1.814155         0.946525         1.541114
 C         1.802385         0.004550         2.893461
 C         2.218980        -1.220183         2.081345
 O         1.038971        -1.409593         1.237896
 C         1.561964        -0.234634         0.493863
 C         1.030801         0.145704        -0.777622
 C         3.046167        -0.520245         0.960506
 O         3.257037         0.913330         1.226325
 H         0.172716         2.359711         2.025797
 H         1.766260         3.141589         2.079669
 H         1.066769         2.815631         0.512725
 H         2.571629         0.229970         3.660284
 H         0.882232        -0.221474         3.462449
 H         2.698368        -2.043873         2.681196
 H         0.260643        -0.664126        -1.097754
 H         0.360029         0.972302        -0.550229
 H         1.743987         0.316388        -1.579791
 H         3.748328        -1.041216         0.382781
