19
Iteration:   142charge 0 multiplicity 1
 C         2.580026         2.314990         0.756886
 C         2.409961         0.857868         1.159766
 C         2.789482         0.284607         2.676032
 C         1.979160        -0.931917         2.451966
 O         0.536565        -0.443835         2.097628
 C         1.148559        -0.038973         0.869857
 C        -0.016703         0.209255        -0.097782
 C         2.270084        -1.061083         0.848739
 O         3.227930        -0.195691         0.413345
 H         2.013369         2.949088         1.521355
 H         3.710623         2.583064         0.610144
 H         2.024865         2.582590        -0.207039
 H         3.923254         0.191882         2.577548
 H         2.482024         0.874957         3.646251
 H         1.870512        -1.796630         3.179050
 H        -0.535202        -0.756328        -0.206460
 H        -0.712237         0.852812         0.609492
 H         0.303947         0.640111        -0.982089
 H         2.326759        -2.066514         0.425733
