19
Iteration:  4228
 C         1.543818         2.458912         1.610520
 C         1.883424         1.041594         1.651531
 C         1.729782         0.175937         2.899611
 C         2.098579        -1.261127         2.096722
 O         0.864979        -1.320350         1.249526
 C         1.442007        -0.242987         0.532356
 C         1.156644        -0.083757        -0.957117
 C         2.851484        -0.543371         0.956515
 O         3.239318         0.788808         1.178477
 H         0.569300         2.783249         1.766676
 H         2.178126         2.873371         2.375294
 H         1.974879         2.716066         0.629364
 H         2.487337         0.301065         3.676194
 H         0.706168         0.124526         3.305445
 H         2.333952        -2.033854         2.897834
 H         0.213355        -0.469808        -1.404509
 H         1.488959         0.943691        -1.278434
 H         1.972115        -0.603579        -1.474223
 H         3.509723        -1.226718         0.511720
