19
Iteration:  1916charge 0 multiplicity 1
 C         2.384135         2.305852         0.852967
 C         2.404001         0.891524         1.270108
 C         2.560394         0.452791         2.764149
 C         2.003696        -0.923827         2.381501
 O         0.575270        -0.704520         2.014253
 C         1.116994        -0.224433         0.845801
 C         0.090961         0.214596        -0.277355
 C         2.426883        -1.119532         0.793380
 O         3.342192         0.026753         0.551940
 H         2.059193         2.589724        -0.125489
 H         1.694362         2.841834         1.521732
 H         3.486020         2.616713         0.863473
 H         3.640979         0.562761         3.080994
 H         1.953766         0.988077         3.468842
 H         2.058506        -1.753685         3.132978
 H        -0.899640         0.088172         0.124117
 H         0.129271         1.322754        -0.314526
 H         0.112791        -0.120054        -1.280936
 H         2.812070        -2.024109         0.242287
