19
Iteration:  3101charge 0 multiplicity 1
 C         1.660603         2.434569         1.478577
 C         1.922627         0.963419         1.547890
 C         1.847426         0.278301         2.911455
 C         2.060374        -1.147937         2.190491
 O         0.934094        -1.409779         1.331965
 C         1.428078        -0.244669         0.529706
 C         0.854968        -0.008533        -0.848634
 C         2.874571        -0.589138         0.957090
 O         3.269872         0.734351         1.123628
 H         2.017806         2.885062         0.508953
 H         0.633905         2.745237         1.575390
 H         2.325835         2.823285         2.199929
 H         2.600436         0.595762         3.559879
 H         0.797049         0.204958         3.326598
 H         2.419561        -2.002081         2.785758
 H        -0.101318         0.410941        -0.734219
 H         1.555211         0.648645        -1.394921
 H         0.783900        -0.986494        -1.402483
 H         3.499748        -1.311266         0.423309
