19
Iteration:  1054charge 0 multiplicity 1
 C         2.517017         2.294071         0.809338
 C         2.454455         0.890604         1.248597
 C         2.748000         0.288686         2.677151
 C         1.935560        -1.009328         2.443592
 O         0.638209        -0.382123         2.174286
 C         1.111684        -0.030120         0.882833
 C         0.014433         0.133802        -0.155741
 C         2.266267        -1.087190         0.755199
 O         3.229420        -0.123366         0.370740
 H         2.063929         3.021391         1.544259
 H         3.505905         2.675725         0.816172
 H         2.109766         2.492424        -0.221954
 H         3.799653         0.305117         2.877974
 H         2.218548         0.963703         3.591589
 H         1.812507        -1.958642         3.126844
 H        -0.940053        -0.414749         0.090372
 H        -0.251873         1.227353        -0.294139
 H         0.420187        -0.364060        -1.055300
 H         2.380588        -2.183121         0.211192
