19
Iteration:  4266charge 0 multiplicity 1
 C         1.315623         2.348118         1.496049
 C         1.969464         0.946986         1.589826
 C         1.794054         0.149048         2.821560
 C         2.023863        -1.149251         2.167501
 O         0.897712        -1.231252         1.229329
 C         1.516643        -0.222539         0.490810
 C         0.992128         0.039896        -0.927920
 C         2.981976        -0.658339         1.010973
 O         3.410189         0.715809         1.312237
 H         0.152197         2.318184         1.450188
 H         1.557346         2.931528         2.464614
 H         1.763726         3.042130         0.772244
 H         2.631286         0.563034         3.471369
 H         0.752064         0.277900         3.228684
 H         2.163848        -2.087448         2.645953
 H         0.146200         0.709834        -0.844453
 H         1.716729         0.662222        -1.429389
 H         0.789286        -0.910098        -1.486611
 H         3.863789        -1.267098         0.614350
