19
Iteration:  4585charge 0 multiplicity 1
 C         1.163215         2.349623         1.626543
 C         1.845129         0.929060         1.503620
 C         1.809168         0.181124         2.811513
 C         2.176468        -1.186050         2.122371
 O         0.966747        -1.325404         1.247690
 C         1.520490        -0.257706         0.554529
 C         1.117429         0.109357        -0.838508
 C         3.029475        -0.600073         0.956140
 O         3.283865         0.777043         1.218214
 H         0.238963         2.323277         2.194728
 H         1.836708         3.080645         2.191202
 H         1.099561         2.644165         0.534463
 H         2.546201         0.488057         3.561059
 H         0.799363        -0.112709         3.222631
 H         2.383172        -2.105176         2.718492
 H         0.919755         1.237704        -1.012536
 H         1.910666        -0.178156        -1.561821
 H         0.211597        -0.330794        -1.196527
 H         3.694067        -1.135310         0.394680
