19
Iteration:  1519
 C         2.585439         2.222663         0.868054
 C         2.326513         0.800936         1.214809
 C         2.669485         0.449938         2.666111
 C         2.076612        -0.945136         2.451768
 O         0.609480        -0.497859         2.185194
 C         1.116441        -0.010518         0.858956
 C         0.054161         0.171005        -0.223062
 C         2.243094        -1.057429         0.788173
 O         3.218327        -0.116558         0.370477
 H         1.880608         3.013811         1.227330
 H         3.558973         2.595041         1.237130
 H         2.446060         2.227425        -0.177927
 H         3.772080         0.487914         2.734124
 H         2.174325         0.733554         3.557812
 H         2.111740        -1.808339         3.122181
 H        -0.819615        -0.337607         0.278868
 H        -0.034872         1.250434        -0.288469
 H         0.177340        -0.493114        -1.043275
 H         2.194740        -1.973475         0.301147
