19
Iteration:  2365charge 0 multiplicity 1
 C         2.057500         2.375103         1.121631
 C         2.262691         0.942107         1.381194
 C         2.292012         0.417190         2.908237
 C         1.999817        -1.066204         2.370379
 O         0.650346        -0.911783         1.819508
 C         1.274379        -0.217357         0.638236
 C         0.385551         0.133954        -0.489395
 C         2.640894        -0.940706         0.809300
 O         3.380549         0.244452         0.627701
 H         1.160091         2.657013         1.764496
 H         2.967700         2.901580         1.489020
 H         1.724086         2.506488         0.112515
 H         3.298393         0.491955         3.283471
 H         1.665526         0.925828         3.719850
 H         2.072634        -1.960633         2.986984
 H        -0.472658        -0.576032        -0.542830
 H        -0.183969         1.055477        -0.354837
 H         0.820947         0.235134        -1.557960
 H         3.078407        -1.851701         0.402225
