19
Iteration:  3717
 C         1.564767         2.449220         1.591639
 C         1.901643         1.043432         1.703916
 C         1.609731         0.113045         2.834333
 C         2.133634        -1.156664         2.108147
 O         0.899209        -1.285493         1.132046
 C         1.577509        -0.214944         0.400200
 C         0.977155        -0.210365        -0.988776
 C         2.910414        -0.542097         0.991561
 O         3.367691         0.803914         1.427469
 H         0.585043         2.607755         2.076286
 H         2.233982         3.012816         2.301627
 H         1.557809         2.813185         0.606271
 H         2.177538         0.329455         3.689188
 H         0.436303         0.092375         3.019952
 H         2.181334        -2.113756         2.527569
 H         1.237591        -1.134256        -1.432615
 H        -0.102984         0.059459        -0.726518
 H         1.235731         0.637909        -1.728182
 H         3.678520        -0.932465         0.361135
