19
Iteration:  4770
 C         1.219919         2.367753         1.468600
 C         1.771623         0.900440         1.578124
 C         1.756121         0.043890         2.881400
 C         2.321463        -1.208987         2.154028
 O         1.044684        -1.515812         1.227451
 C         1.635303        -0.301877         0.540976
 C         0.936298         0.257125        -0.791563
 C         3.044249        -0.494931         0.934716
 O         3.205703         0.902513         1.248632
 H         0.309069         2.374086         2.065489
 H         2.102806         2.941516         1.932195
 H         0.930248         2.597089         0.411959
 H         2.481054         0.638909         3.536905
 H         0.729581        -0.051581         3.233523
 H         2.513065        -2.283936         2.479236
 H         0.128472        -0.519061        -1.151717
 H         0.617085         1.309231        -0.753013
 H         1.672915         0.368504        -1.643698
 H         3.878098        -0.886009         0.415604
