19
Iteration:  4358charge 0 multiplicity 1
 C         1.479325         2.462579         1.687776
 C         1.815950         1.030552         1.559109
 C         1.676438         0.123842         2.777167
 C         2.100430        -1.174474         2.128889
 O         0.946195        -1.343148         1.194214
 C         1.534536        -0.156887         0.507623
 C         1.052311        -0.165566        -0.887222
 C         2.977658        -0.562049         0.946859
 O         3.292566         0.813846         1.274750
 H         0.444261         2.564698         1.922537
 H         2.156845         2.893612         2.487977
 H         1.705787         2.984039         0.711155
 H         2.342045         0.307967         3.610592
 H         0.712265         0.095363         3.381220
 H         2.423775        -2.183414         2.568610
 H         1.729069         0.269524        -1.704159
 H         0.688442        -1.131431        -1.342756
 H         0.192154         0.505383        -0.864116
 H         3.728160        -1.085759         0.417491
