19
Iteration:  2061charge 0 multiplicity 1
 C         2.228824         2.368913         0.914223
 C         2.249203         0.857420         1.264379
 C         2.560359         0.430946         2.639802
 C         2.060131        -1.052579         2.345463
 O         0.644848        -0.770081         1.999142
 C         1.163842        -0.101890         0.806873
 C         0.143696         0.229409        -0.276997
 C         2.446410        -1.077615         0.764405
 O         3.387659         0.055565         0.708227
 H         1.241171         2.872239         0.613110
 H         2.767833         3.046386         1.739221
 H         2.811041         2.539895        -0.008190
 H         3.630817         0.649377         2.970923
 H         1.856385         0.672537         3.468537
 H         2.000712        -1.869773         3.074475
 H         0.709081         0.089744        -1.210726
 H        -0.734102        -0.356620        -0.144837
 H        -0.089897         1.359078        -0.211824
 H         2.632017        -1.994104         0.236204
