19
Iteration:  2723charge 0 multiplicity 1
 C         1.828699         2.390432         1.207366
 C         2.104209         0.993168         1.475913
 C         2.105665         0.244095         2.861154
 C         2.035737        -1.176116         2.241356
 O         0.744345        -1.067671         1.594323
 C         1.325780        -0.213197         0.657143
 C         0.535094         0.068122        -0.638383
 C         2.801191        -0.767617         0.823843
 O         3.424325         0.492722         0.994468
 H         2.176509         3.018428         2.083408
 H         2.364058         2.708134         0.311007
 H         0.835486         2.593152         0.891586
 H         3.072269         0.493690         3.298261
 H         1.296566         0.537186         3.637825
 H         2.140201        -1.942204         2.998347
 H         1.131629         0.611841        -1.376112
 H         0.308596        -0.928187        -1.108406
 H        -0.518207         0.587312        -0.533009
 H         3.239935        -1.507090         0.177589
