19
Iteration:  4669
 C         1.377806         2.403058         1.610074
 C         1.850121         0.970867         1.622422
 C         1.690369         0.102860         2.850130
 C         2.210470        -1.156716         2.119885
 O         1.162622        -1.483048         1.203820
 C         1.491720        -0.300472         0.553815
 C         0.910462         0.067917        -0.920193
 C         2.928834        -0.484850         0.953607
 O         3.238582         0.856974         1.253580
 H         0.384088         2.355126         1.104625
 H         1.575195         2.910668         2.574643
 H         2.043228         2.855607         0.911845
 H         2.331138         0.344131         3.668029
 H         0.636502         0.035435         3.249815
 H         2.687043        -1.915886         2.705375
 H         1.692158         0.139713        -1.714999
 H         0.112637        -0.615628        -1.311852
 H         0.506169         1.082373        -0.944127
 H         3.683676        -0.967722         0.300119
