19
Iteration:  2741charge 0 multiplicity 1
 C         1.890365         2.545397         1.213499
 C         2.096743         1.014396         1.492394
 C         2.091451         0.250461         2.886034
 C         2.056540        -1.139136         2.213886
 O         0.721034        -1.167612         1.575415
 C         1.336206        -0.179495         0.582066
 C         0.567522        -0.019711        -0.624498
 C         2.749471        -0.787853         0.862456
 O         3.393178         0.503450         0.997664
 H         2.670285         3.129339         1.723606
 H         2.034149         2.737756         0.087779
 H         0.808470         2.726529         1.517592
 H         2.917486         0.500539         3.571002
 H         1.119457         0.202647         3.437645
 H         2.451415        -2.095013         2.620978
 H         1.204463         0.138595        -1.479428
 H        -0.210523        -0.761386        -0.645460
 H         0.002518         0.890571        -0.462806
 H         3.295001        -1.611088         0.289442
