19
Iteration:  3847charge 0 multiplicity 1
 C         1.410200         2.331929         1.365078
 C         1.868781         0.908195         1.559615
 C         1.680727         0.133101         2.886941
 C         2.059207        -1.211465         2.112426
 O         0.915335        -1.226296         1.206645
 C         1.615134        -0.221449         0.519018
 C         0.956730         0.175141        -0.787048
 C         3.027877        -0.645669         1.012540
 O         3.394738         0.730027         1.338547
 H         0.366606         2.262465         1.019175
 H         1.461755         2.990266         2.257826
 H         1.884195         2.859438         0.579965
 H         2.392933         0.250909         3.629731
 H         0.661201        -0.068419         3.353278
 H         2.338453        -2.078473         2.710759
 H         0.788048        -0.700817        -1.376214
 H        -0.099779         0.541981        -0.635100
 H         1.568774         0.867823        -1.426011
 H         3.843053        -1.178363         0.480387
