19
Iteration:  3261
 C         1.451906         2.432624         1.577920
 C         1.871128         0.964871         1.518272
 C         1.622649         0.103544         2.823804
 C         2.094313        -1.145551         2.231627
 O         0.986689        -1.288465         1.232661
 C         1.603067        -0.144387         0.403366
 C         0.900293        -0.099832        -0.905506
 C         3.014937        -0.520634         0.962468
 O         3.390120         0.737333         1.308884
 H         1.796437         3.027033         2.434215
 H         1.850087         2.994381         0.720220
 H         0.382653         2.358148         1.520254
 H         2.234312         0.408207         3.663726
 H         0.513268         0.088708         3.170465
 H         2.327471        -1.993284         2.904907
 H         1.044989        -1.104007        -1.378710
 H        -0.207321        -0.081173        -0.654185
 H         1.233782         0.752430        -1.518720
 H         3.689526        -1.272888         0.464201
