19
Iteration:  1444charge 0 multiplicity 1
 C         2.600696         2.230812         0.590708
 C         2.393559         0.876227         1.240047
 C         2.618997         0.402274         2.646988
 C         2.048332        -1.056127         2.445242
 O         0.551391        -0.581877         2.169980
 C         1.123557        -0.063515         0.977579
 C         0.160167         0.319423        -0.128377
 C         2.238123        -1.071509         0.841223
 O         3.181767        -0.060938         0.446360
 H         2.453850         3.065402         1.304188
 H         3.545012         2.333351         0.038805
 H         1.782855         2.322313        -0.083221
 H         3.620734         0.278008         3.130072
 H         1.955053         1.006557         3.451892
 H         2.284850        -2.030884         2.927794
 H        -0.033147        -0.662147        -0.669864
 H        -0.786856         0.664134         0.449727
 H         0.529783         1.141914        -0.781583
 H         2.280778        -2.045211         0.353919
