19
Iteration:  1038
 C         2.521363         2.358900         0.787831
 C         2.410043         0.864611         1.196608
 C         2.771407         0.253918         2.632711
 C         1.963658        -0.958705         2.354844
 O         0.557858        -0.494131         2.173864
 C         1.147465        -0.015338         0.860941
 C         0.066307         0.171623        -0.149425
 C         2.212203        -1.061734         0.886528
 O         3.262556        -0.103976         0.490390
 H         2.228935         3.036198         1.560369
 H         3.493787         2.692988         0.266939
 H         1.979417         2.412936        -0.154457
 H         3.852639        -0.096947         2.573433
 H         2.547524         0.714794         3.479842
 H         2.059611        -1.668037         3.096345
 H        -0.837212        -0.351762         0.218974
 H        -0.337577         1.127289        -0.380709
 H         0.196221        -0.288786        -1.139637
 H         2.148708        -1.925217         0.356919
