19
Iteration:  3863charge 0 multiplicity 1
 C         1.473160         2.450083         1.495551
 C         1.964484         1.009486         1.575643
 C         1.681018         0.110482         2.794205
 C         2.115767        -1.183229         2.190589
 O         0.949485        -1.402520         1.163588
 C         1.492083        -0.228378         0.531046
 C         0.955114         0.066849        -0.835006
 C         2.955468        -0.563981         0.983365
 O         3.339538         0.713643         1.329643
 H         0.396943         2.609140         1.330495
 H         1.705345         2.938859         2.444249
 H         2.061730         2.918694         0.636648
 H         2.146471         0.783172         3.630443
 H         0.631630         0.132170         2.877313
 H         2.199921        -2.158830         2.697433
 H         0.927438        -0.794327        -1.603887
 H        -0.036077         0.581622        -0.773296
 H         1.647562         0.815624        -1.213820
 H         3.638709        -1.304275         0.596759
