19
Iteration:  1065charge 0 multiplicity 1
 C         2.568615         2.253837         0.864413
 C         2.441037         0.788240         1.136615
 C         2.721048         0.384425         2.705887
 C         1.984272        -0.955267         2.413319
 O         0.651743        -0.438961         2.205091
 C         1.125542        -0.067275         0.875428
 C         0.048057         0.157542        -0.140549
 C         2.223531        -1.042998         0.788576
 O         3.181618        -0.116292         0.358844
 H         1.777339         2.702170         1.538575
 H         3.549036         2.599050         1.062428
 H         2.344387         2.453558        -0.209282
 H         3.762376         0.438950         2.951996
 H         1.981075         1.050177         3.429694
 H         1.978679        -1.857300         3.157762
 H        -0.892901        -0.418914         0.016472
 H        -0.202891         1.246183        -0.314533
 H         0.419694        -0.061496        -1.155479
 H         2.175537        -2.049861         0.115127
