19
Iteration:  1980charge 0 multiplicity 1
 C         2.488679         2.379054         0.952877
 C         2.346303         0.910553         1.288309
 C         2.525985         0.458738         2.701665
 C         2.026446        -1.041893         2.422897
 O         0.599266        -0.792340         2.063024
 C         1.091793        -0.134247         0.830520
 C         0.157779         0.072477        -0.371488
 C         2.392225        -1.006367         0.858459
 O         3.237036         0.130899         0.470854
 H         1.637861         2.809401         0.406280
 H         2.743197         3.032814         1.811021
 H         3.435393         2.406818         0.323806
 H         3.599786         0.453928         3.087387
 H         1.830908         0.898112         3.464820
 H         2.140070        -1.899063         3.144200
 H        -0.071452         1.186416        -0.353128
 H         0.869547         0.001599        -1.289463
 H        -0.773298        -0.506254        -0.334926
 H         2.421356        -2.023383         0.338588
