19
Iteration:   718
 C         2.509029         2.291852         0.784010
 C         2.464592         0.828383         1.194028
 C         2.775395         0.355717         2.610462
 C         1.938202        -0.928520         2.486406
 O         0.606090        -0.429379         2.152431
 C         1.138091        -0.057681         0.841986
 C         0.076459         0.167768        -0.170504
 C         2.200270        -1.158294         0.860435
 O         3.231510        -0.132034         0.434534
 H         2.556010         2.798408         1.831913
 H         3.394716         2.537030         0.243592
 H         1.706090         2.669980         0.144056
 H         3.894471         0.308140         2.808348
 H         2.208623         1.087652         3.367957
 H         1.957673        -1.762915         3.110691
 H        -0.278282        -0.640189        -0.775402
 H        -0.931419         0.535577         0.301499
 H         0.214655         1.003254        -0.818433
 H         2.222420        -2.106929         0.452280
