19
Iteration:  3857
 C         1.475207         2.409005         1.433389
 C         1.888101         0.991743         1.560949
 C         1.703149         0.113615         2.828614
 C         2.126533        -1.208222         2.174853
 O         0.927095        -1.316328         1.154657
 C         1.506158        -0.208464         0.490985
 C         0.933373         0.075003        -0.793083
 C         2.988518        -0.598067         1.030565
 O         3.376960         0.709868         1.328258
 H         0.374917         2.299935         1.242343
 H         1.507765         2.981562         2.402004
 H         1.965278         2.881336         0.627680
 H         2.153132         0.607018         3.624002
 H         0.571465         0.061059         3.039831
 H         2.253172        -2.173124         2.635034
 H         0.950602        -0.727073        -1.452921
 H         0.036474         0.676722        -0.679681
 H         1.665395         0.870452        -1.104966
 H         3.794189        -1.231135         0.561439
