19
Iteration:  2572charge 0 multiplicity 1
 C         1.973328         2.528077         1.224763
 C         2.131896         0.999855         1.386991
 C         2.154333         0.283157         2.751113
 C         2.036379        -1.114883         2.320639
 O         0.684045        -1.027790         1.683122
 C         1.386889        -0.339003         0.598188
 C         0.441710         0.043105        -0.510244
 C         2.714010        -0.868471         0.884885
 O         3.387952         0.425080         0.835498
 H         1.602116         2.745215         0.153571
 H         1.374216         2.866264         2.097998
 H         2.989151         2.931926         1.157954
 H         2.998373         0.510542         3.360753
 H         1.145952         0.497306         3.287530
 H         2.269450        -1.984731         2.921368
 H        -0.126171        -0.748244        -0.937479
 H        -0.241436         0.729620        -0.032853
 H         0.969462         0.710988        -1.247532
 H         3.382978        -1.561939         0.400054
