19
Iteration:   713
 C         2.515921         2.285556         0.818318
 C         2.439858         0.845860         1.174870
 C         2.748672         0.418562         2.620646
 C         1.984838        -0.943552         2.450905
 O         0.584481        -0.434321         2.136346
 C         1.137558        -0.087048         0.858171
 C         0.058830         0.207467        -0.144851
 C         2.171007        -1.125566         0.870769
 O         3.278267        -0.204118         0.418736
 H         2.530898         2.859747         1.698417
 H         3.436914         2.685138         0.282815
 H         1.690596         2.651426         0.180160
 H         3.790318         0.403740         2.840778
 H         2.191990         0.960978         3.304043
 H         1.951291        -1.739714         3.314742
 H        -0.192185        -0.712572        -0.759813
 H        -0.773617         0.435743         0.443558
 H         0.188891         1.045432        -0.891283
 H         2.271116        -2.153339         0.258615
