19
Iteration:  4952charge 0 multiplicity 1
 C         1.272107         2.290077         1.544425
 C         1.919060         0.922107         1.606894
 C         1.707759         0.047610         2.837908
 C         2.169854        -1.191375         2.047443
 O         1.113495        -1.301867         1.170029
 C         1.625279        -0.185003         0.469477
 C         0.775081         0.003887        -0.766275
 C         3.078800        -0.436909         0.940108
 O         3.311983         0.847451         1.309103
 H         0.194737         2.172616         1.603025
 H         1.574483         2.956066         2.404721
 H         1.390151         2.919543         0.671942
 H         2.426175         0.294972         3.637988
 H         0.688777         0.017915         3.200712
 H         2.611322        -2.081469         2.615634
 H        -0.253936        -0.338330        -0.424220
 H         0.631480         0.976438        -1.174558
 H         1.027568        -0.699386        -1.510446
 H         3.925269        -0.904854         0.481645
