19
Iteration:  1517charge 0 multiplicity 1
 C         2.576185         2.228225         0.872449
 C         2.335686         0.794352         1.215474
 C         2.648616         0.452229         2.666617
 C         2.058283        -0.942948         2.457487
 O         0.615129        -0.504280         2.188204
 C         1.125536        -0.019734         0.851253
 C         0.055819         0.184345        -0.210497
 C         2.243843        -1.044916         0.785642
 O         3.229699        -0.130750         0.357885
 H         1.908864         3.034367         1.290674
 H         3.601378         2.590832         1.245953
 H         2.391794         2.309023        -0.228939
 H         3.820001         0.512426         2.704028
 H         2.207048         0.820154         3.519657
 H         2.082342        -1.847739         3.174322
 H        -0.762733        -0.391424         0.300634
 H        -0.074888         1.236763        -0.311580
 H         0.165368        -0.500538        -1.071964
 H         2.183000        -1.980450         0.315971
