19
Iteration:  3395
 C         1.467728         2.465389         1.526954
 C         1.849177         0.981157         1.577580
 C         1.581653         0.128680         2.856875
 C         2.043856        -1.260200         2.117569
 O         0.973307        -1.443480         1.151517
 C         1.613283        -0.175212         0.474731
 C         0.958028        -0.026996        -0.990419
 C         3.086341        -0.480483         1.070175
 O         3.309749         0.826801         1.429427
 H         1.079722         2.770713         0.556192
 H         0.872868         2.759359         2.356206
 H         2.398049         2.997303         1.504792
 H         2.363875         0.316181         3.598813
 H         0.536895         0.043326         3.216419
 H         2.273287        -2.176196         2.719382
 H         0.314210        -0.879380        -1.159552
 H         0.369953         0.921937        -1.103788
 H         1.774332        -0.100401        -1.734119
 H         3.872415        -0.931706         0.490253
