19
Iteration:  4553
 C         1.345182         2.366948         1.741592
 C         1.814380         0.980275         1.584191
 C         1.800831         0.093926         2.906490
 C         2.084362        -1.171495         2.182220
 O         1.012019        -1.383517         1.261608
 C         1.456719        -0.234063         0.543273
 C         1.179219        -0.014251        -1.036428
 C         2.948487        -0.523532         0.966368
 O         3.194519         0.893108         1.120794
 H         0.317164         2.608918         1.806514
 H         2.065544         3.023923         2.323030
 H         1.537369         2.775939         0.659306
 H         2.676811         0.256092         3.556915
 H         0.909654        -0.168724         3.528110
 H         2.400348        -2.161235         2.557213
 H         0.452235         0.837137        -1.199873
 H         2.121957         0.133074        -1.566400
 H         0.766189        -0.914549        -1.399753
 H         3.475987        -1.070742         0.301522
