19
Iteration:  3821charge 0 multiplicity 1
 C         1.310455         2.224659         1.283813
 C         1.924935         0.915977         1.600116
 C         1.881644         0.145186         2.946440
 C         1.976654        -1.279039         2.194713
 O         0.864369        -1.213896         1.162336
 C         1.573221        -0.175437         0.527471
 C         1.018854         0.255014        -0.837595
 C         2.962881        -0.608469         1.006722
 O         3.409515         0.717731         1.382253
 H         0.272513         1.840422         1.083264
 H         1.211065         3.079240         1.964789
 H         1.581115         2.583021         0.249744
 H         2.793421         0.293481         3.626559
 H         0.950612         0.156712         3.460313
 H         2.136818        -2.197205         2.762277
 H         0.842069        -0.559638        -1.570720
 H         0.060009         0.671648        -0.818519
 H         1.783285         0.875389        -1.251116
 H         3.791446        -1.094547         0.463930
