19
Iteration:  3644
 C         1.245544         2.238370         1.352615
 C         1.875855         0.958168         1.555735
 C         1.744803         0.077514         2.871032
 C         2.090152        -1.197679         2.181854
 O         0.867784        -1.303208         1.287357
 C         1.515031        -0.191355         0.623199
 C         1.208675         0.273970        -0.845107
 C         2.965193        -0.642436         1.008790
 O         3.355395         0.734048         1.224440
 H         0.166364         2.183831         1.013954
 H         1.319117         2.980649         2.188690
 H         1.813471         2.740616         0.496195
 H         2.510561         0.609192         3.476091
 H         0.728442         0.030036         3.341187
 H         2.451141        -2.210385         2.603290
 H         1.237259        -0.487022        -1.622221
 H         0.443213         1.042559        -0.707718
 H         2.078441         0.863496        -1.086360
 H         3.519593        -1.406462         0.472871
