19
Iteration:  4632
 C         1.352899         2.278780         1.368425
 C         1.855443         0.947680         1.656205
 C         1.718544         0.010022         2.818399
 C         2.159891        -1.219810         2.127439
 O         1.065252        -1.321426         1.134957
 C         1.599167        -0.175318         0.513459
 C         0.852374         0.065829        -0.738539
 C         3.056521        -0.468829         0.984245
 O         3.274265         0.875513         1.374246
 H         0.205834         2.327181         1.533772
 H         1.678520         3.040947         2.098871
 H         1.609573         2.627990         0.287493
 H         2.549329         0.387203         3.495377
 H         0.769287        -0.170834         3.287807
 H         2.461293        -2.274654         2.354008
 H         1.403951         0.768378        -1.329761
 H         0.616395        -0.829382        -1.290751
 H        -0.099565         0.545849        -0.407397
 H         3.827063        -1.100679         0.408012
