19
Iteration:  4519charge 0 multiplicity 1
 C         1.375997         2.390923         1.605552
 C         1.851210         1.022583         1.583207
 C         1.728514         0.048941         2.832523
 C         2.137479        -1.136194         2.067775
 O         0.984026        -1.336207         1.203872
 C         1.549557        -0.189720         0.502643
 C         0.967702        -0.118280        -0.908913
 C         2.997759        -0.535702         0.925604
 O         3.332541         0.837736         1.370529
 H         0.298774         2.430269         1.699634
 H         1.763586         2.943934         2.533459
 H         1.785668         2.920292         0.701518
 H         2.352243         0.476749         3.596670
 H         0.679166         0.068886         3.279332
 H         2.350814        -2.113306         2.492227
 H        -0.159107        -0.079449        -0.827051
 H         1.243774         0.839557        -1.379550
 H         1.248799        -1.005336        -1.456430
 H         3.662827        -0.851988         0.207437
