19
Iteration:  3014charge 0 multiplicity 1
 C         1.529914         2.469640         1.349762
 C         2.016134         0.985141         1.488781
 C         1.948990         0.171216         2.876577
 C         2.076883        -1.222350         2.221509
 O         0.796079        -1.212231         1.422830
 C         1.467805        -0.226990         0.626601
 C         0.835378         0.056122        -0.791738
 C         2.874951        -0.736819         0.987373
 O         3.351239         0.659566         1.064027
 H         2.317048         3.159365         1.722592
 H         1.542204         2.741480         0.307169
 H         0.559973         2.551242         1.722260
 H         2.858174         0.495698         3.269162
 H         1.200863         0.322150         3.772279
 H         2.165940        -2.116286         2.874166
 H         1.066568        -0.716507        -1.493011
 H        -0.287377         0.255471        -0.907885
 H         1.275476         1.061883        -1.256170
 H         3.524064        -1.424430         0.433240
