19
Iteration:   728charge 0 multiplicity 1
 C         2.543347         2.273979         0.766123
 C         2.428912         0.827431         1.169663
 C         2.763882         0.288397         2.646066
 C         1.908097        -0.914173         2.457687
 O         0.622129        -0.432973         2.199492
 C         1.110827        -0.055271         0.890123
 C         0.053187         0.173914        -0.239874
 C         2.274348        -1.106642         0.887888
 O         3.172438        -0.071665         0.419093
 H         2.541909         3.060019         1.650735
 H         3.450190         2.327505         0.233463
 H         1.634353         2.526705         0.211236
 H         3.820753        -0.034532         2.651060
 H         2.573698         1.049758         3.548948
 H         1.955584        -1.765349         3.089818
 H        -0.078638        -0.772474        -0.762212
 H        -0.863898         0.574479         0.292690
 H         0.549256         0.812140        -0.889839
 H         2.276447        -2.111341         0.486001
