19
Iteration:   882
 C         2.635115         2.339049         0.822429
 C         2.389263         0.878663         1.124947
 C         2.757460         0.449080         2.566599
 C         2.006678        -0.871078         2.502769
 O         0.589353        -0.628700         2.277588
 C         1.042104        -0.193890         0.927087
 C         0.106605         0.282348        -0.222188
 C         2.197901        -1.125617         0.896147
 O         3.105796        -0.189106         0.329225
 H         1.677713         2.966935         0.569344
 H         3.217072         2.932003         1.530473
 H         3.290500         2.446820        -0.085009
 H         3.830584         0.243752         2.595715
 H         2.501075         1.122682         3.386385
 H         2.290347        -1.756645         3.121574
 H        -0.584469        -0.420620        -0.556131
 H        -0.448064         1.182338         0.215241
 H         0.834917         0.720909        -0.907556
 H         2.202170        -2.028539         0.350733
