19
Iteration:  4854
 C         1.191881         2.236693         1.771865
 C         1.818526         0.970429         1.627871
 C         1.868610         0.146232         2.902698
 C         2.262891        -1.105241         2.132356
 O         1.021226        -1.391050         1.151159
 C         1.528760        -0.177697         0.483834
 C         0.981423        -0.100394        -1.003661
 C         2.999389        -0.481402         0.890256
 O         3.267397         0.901002         1.252851
 H         0.102468         2.305183         1.924502
 H         1.612246         2.830207         2.631617
 H         1.467678         2.934931         1.006549
 H         2.501133         0.540774         3.685972
 H         0.845861         0.103163         3.303239
 H         2.449717        -2.093158         2.592346
 H         0.036394         0.456319        -1.172699
 H         1.651879         0.378601        -1.680780
 H         0.820006        -1.109930        -1.247647
 H         3.667196        -0.922511         0.163397
