19
Iteration:  4217charge 0 multiplicity 1
 C         1.653638         2.531841         1.609434
 C         1.819037         1.010876         1.626282
 C         1.726818         0.196772         2.925392
 C         2.059036        -1.198708         2.176023
 O         0.862147        -1.418154         1.247765
 C         1.429357        -0.272268         0.482080
 C         1.142613        -0.061619        -1.011502
 C         2.891723        -0.563195         0.936380
 O         3.265802         0.783778         1.245026
 H         0.646707         2.606052         1.903575
 H         2.288352         3.157328         2.204089
 H         1.643871         3.015271         0.597079
 H         2.441348         0.340868         3.731380
 H         0.697442         0.024729         3.300284
 H         2.344913        -2.226985         2.639663
 H         0.228838        -0.557226        -1.415332
 H         0.961927         1.029293        -1.277737
 H         2.008421        -0.569818        -1.411434
 H         3.600240        -0.952902         0.254140
