19
Iteration:  1286charge 0 multiplicity 1
 C         2.468407         2.295073         0.790990
 C         2.416121         0.770544         1.199350
 C         2.666225         0.518926         2.602433
 C         2.052020        -0.931667         2.411645
 O         0.636242        -0.636301         2.137246
 C         1.142674        -0.042759         0.867753
 C         0.048303         0.388324        -0.083462
 C         2.237531        -1.172222         0.812010
 O         3.295625        -0.225120         0.464464
 H         1.695795         2.789815         1.332975
 H         3.343357         2.832061         1.044118
 H         2.176581         2.410747        -0.272160
 H         3.768689         0.586716         2.928627
 H         2.002520         1.127474         3.074147
 H         2.141236        -1.636777         3.148828
 H        -0.908838        -0.037738         0.174826
 H        -0.116919         1.453435        -0.115511
 H         0.135496        -0.078184        -1.127465
 H         2.053847        -2.151888         0.316807
