19
Iteration:   180
 C         2.626585         2.313144         0.686068
 C         2.341885         0.861870         1.139629
 C         2.595933         0.448277         2.618753
 C         2.112986        -1.009853         2.390198
 O         0.598757        -0.632032         2.255649
 C         1.045746        -0.085065         0.963477
 C         0.119887         0.371162        -0.083128
 C         2.239307        -1.093794         0.836780
 O         3.185879        -0.207583         0.392289
 H         2.150817         2.965555         1.387044
 H         3.632726         2.553513         0.888894
 H         2.444181         2.460821        -0.357654
 H         3.622472         0.672132         2.946399
 H         1.999212         0.726684         3.428302
 H         2.273856        -1.754893         3.136640
 H        -0.844490        -0.090723        -0.063438
 H        -0.040582         1.394107        -0.077752
 H         0.562951         0.285807        -1.141120
 H         2.219376        -2.019445         0.207276
