19
Iteration:  2877
 C         1.743106         2.353795         1.337877
 C         2.066860         0.979062         1.424306
 C         1.989340         0.348375         2.865663
 C         2.032759        -1.109208         2.253297
 O         0.800271        -1.287915         1.485083
 C         1.385166        -0.193041         0.623641
 C         0.711950         0.130349        -0.677280
 C         2.844279        -0.797289         0.932102
 O         3.346705         0.548884         0.968778
 H         0.707834         2.451312         0.820131
 H         1.438820         2.794053         2.300692
 H         2.584016         2.922691         0.824509
 H         2.888773         0.838788         3.410613
 H         1.072227         0.532882         3.440496
 H         2.214533        -2.006831         2.841095
 H        -0.203484         0.810753        -0.616760
 H         1.401762         0.760350        -1.270096
 H         0.485465        -0.856657        -1.135137
 H         3.359535        -1.533867         0.343182
