19
Iteration:  4482
 C         1.325974         2.365382         1.402554
 C         1.905611         0.910367         1.582820
 C         1.666388         0.113924         2.859252
 C         2.097038        -1.187603         2.117941
 O         1.046391        -1.393483         1.147934
 C         1.637641        -0.217727         0.427604
 C         0.860073         0.085819        -0.747817
 C         3.061286        -0.557014         1.028555
 O         3.361956         0.819478         1.372189
 H         0.195485         2.306617         1.404290
 H         1.674501         2.940128         2.236672
 H         1.586181         2.927559         0.525399
 H         2.435197         0.434375         3.621893
 H         0.599907         0.098663         3.107664
 H         2.346452        -1.955753         2.848342
 H        -0.054705        -0.495236        -0.784544
 H         0.581435         1.160111        -0.512916
 H         1.231598         0.222525        -1.838871
 H         3.819547        -1.175007         0.355927
