19
Iteration:  1873
 C         2.433297         2.370183         0.814733
 C         2.322323         0.926975         1.229594
 C         2.597766         0.446769         2.695775
 C         2.066786        -1.069682         2.383124
 O         0.590026        -0.680778         2.158489
 C         1.061962        -0.198838         0.843059
 C         0.222804         0.207902        -0.272857
 C         2.298193        -1.037355         0.787234
 O         3.266959        -0.009906         0.559757
 H         3.034704         2.406091        -0.074214
 H         1.448462         2.850897         0.663310
 H         3.128492         2.859345         1.551024
 H         3.652622         0.638284         3.028280
 H         1.939637         0.900468         3.382139
 H         2.279545        -1.982959         3.009931
 H        -0.267130        -0.613547        -0.738725
 H        -0.526444         0.901278        -0.014603
 H         0.827451         0.756895        -0.941584
 H         2.298507        -1.983213         0.220427
