19
Iteration:  4011
 C         1.518922         2.428956         1.312448
 C         1.917313         0.963231         1.628875
 C         1.672367         0.115972         2.876845
 C         2.045791        -1.225000         2.207844
 O         0.981483        -1.432066         1.235725
 C         1.460048        -0.223709         0.524636
 C         0.995553         0.192142        -0.821420
 C         2.907512        -0.590292         0.963849
 O         3.353070         0.739042         1.294193
 H         0.461231         2.468284         1.069779
 H         1.710613         2.990204         2.251150
 H         2.147744         2.977773         0.554885
 H         2.274364         0.462386         3.692279
 H         0.604314        -0.038971         3.153353
 H         2.625109        -1.935787         2.852603
 H         0.667686        -0.568825        -1.465084
 H         0.202053         0.938957        -0.732474
 H         1.887879         0.597143        -1.190545
 H         3.440978        -1.303332         0.358267
