19
Iteration:    98charge 0 multiplicity 1
 C         2.637368         2.186369         0.764828
 C         2.419554         0.830456         1.147695
 C         2.697991         0.475853         2.721640
 C         2.123975        -0.918451         2.444586
 O         0.622782        -0.551526         2.206376
 C         1.066806        -0.024355         0.991514
 C         0.100214         0.277894        -0.173418
 C         2.117243        -1.028148         0.824130
 O         3.123772        -0.219410         0.316669
 H         1.870019         2.778515         1.374940
 H         3.766643         2.341015         0.957726
 H         2.376183         2.524260        -0.315656
 H         3.832270         0.409914         2.984785
 H         2.037341         1.164669         3.344884
 H         2.290272        -1.846788         3.009376
 H         0.091058        -0.564812        -0.833531
 H        -0.946530         0.356405         0.171959
 H         0.374971         1.017620        -0.807184
 H         1.969710        -2.004461         0.433572
