19
Iteration:  4173
 C         1.477538         2.369496         1.472074
 C         2.047531         0.952810         1.482009
 C         1.601985         0.131072         2.888591
 C         1.970504        -1.210008         2.167786
 O         0.883217        -1.265511         1.173283
 C         1.596537        -0.202963         0.472973
 C         0.914002         0.037770        -0.859118
 C         3.082154        -0.575059         0.984989
 O         3.407030         0.728864         1.381006
 H         0.718071         2.529430         2.191970
 H         2.336880         3.017931         1.672243
 H         1.174352         2.729889         0.468207
 H         2.178249         0.677518         3.611519
 H         0.486226         0.232834         3.016084
 H         1.992992        -2.073398         2.883296
 H         0.261250        -0.821692        -1.081947
 H         0.111353         0.833496        -0.664071
 H         1.581748         0.159968        -1.721493
 H         3.825697        -1.295472         0.779794
