19
Iteration:  4698
 C         1.210917         2.408390         1.773639
 C         1.790662         0.977270         1.548235
 C         1.809130         0.105037         2.846771
 C         2.157836        -1.273483         2.098193
 O         0.979935        -1.302075         1.217110
 C         1.582684        -0.259335         0.577732
 C         1.020889        -0.054361        -0.925531
 C         3.071011        -0.524428         0.928573
 O         3.275686         0.868961         1.166322
 H         0.176539         2.496939         1.264377
 H         1.331135         2.751388         2.808333
 H         1.777892         3.101028         1.071834
 H         2.621104         0.563347         3.479111
 H         0.849758         0.032985         3.340239
 H         2.458516        -2.119644         2.731559
 H         1.670823        -0.558708        -1.567240
 H         0.034347        -0.530349        -0.984026
 H         0.917798         0.979915        -1.343166
 H         3.940044        -0.891883         0.226982
