19
Iteration:  1859charge 0 multiplicity 1
 C         2.492675         2.306713         0.866516
 C         2.321056         0.868221         1.329579
 C         2.632639         0.361981         2.694251
 C         2.041772        -0.936319         2.384954
 O         0.631111        -0.628188         2.112373
 C         1.095764        -0.150602         0.880046
 C         0.086038         0.178951        -0.374561
 C         2.349096        -1.053831         0.856495
 O         3.236118         0.017372         0.502291
 H         3.054527         2.239357        -0.079247
 H         1.521496         2.652422         0.524622
 H         2.718311         3.131253         1.541459
 H         3.693178         0.370799         2.839527
 H         2.038188         0.845138         3.563294
 H         2.108242        -1.823971         3.034136
 H        -0.007251        -0.575049        -1.153754
 H        -0.880730         0.504394         0.099464
 H         0.572948         1.005486        -0.852432
 H         2.644745        -2.039913         0.346833
