19
Iteration:  3616
 C         1.307826         2.333054         1.488361
 C         1.907028         1.001970         1.632500
 C         1.762845         0.111551         2.904767
 C         1.973019        -1.188473         2.155647
 O         0.925195        -1.265947         1.203204
 C         1.566822        -0.181215         0.554790
 C         1.141086         0.008503        -0.973273
 C         3.031603        -0.545951         0.934719
 O         3.279484         0.716931         1.330157
 H         0.249910         2.206553         1.388120
 H         1.610042         2.957655         2.316205
 H         1.703722         2.928560         0.670652
 H         2.569212         0.512265         3.589092
 H         0.846764         0.154671         3.451156
 H         2.121556        -2.184091         2.623928
 H         0.825546        -0.964063        -1.480933
 H         0.365957         0.782035        -0.947202
 H         1.936095         0.532575        -1.547412
 H         3.796535        -1.172116         0.373143
