19
Iteration:  4267
 C         1.315562         2.342668         1.496252
 C         1.964977         0.944195         1.586593
 C         1.800684         0.154559         2.820293
 C         2.020516        -1.139969         2.171529
 O         0.901707        -1.233672         1.228788
 C         1.518242        -0.219793         0.486956
 C         0.984201         0.043982        -0.925993
 C         2.983623        -0.663027         1.012789
 O         3.414110         0.715048         1.317120
 H         0.155395         2.286289         1.441909
 H         1.524569         2.978475         2.458687
 H         1.762144         3.013242         0.761194
 H         2.643780         0.530563         3.474365
 H         0.709606         0.263290         3.191239
 H         2.164751        -2.088319         2.602470
 H         0.164075         0.742607        -0.803254
 H         1.741758         0.655628        -1.439214
 H         0.762024        -0.918715        -1.485479
 H         3.853585        -1.276002         0.620601
