19
Iteration:  1329charge 0 multiplicity 1
 C         2.568832         2.288296         0.640936
 C         2.322961         0.925452         1.244699
 C         2.745383         0.331958         2.626061
 C         1.988364        -1.051690         2.491443
 O         0.640827        -0.563233         2.204522
 C         1.083945        -0.097557         0.940932
 C         0.082562         0.309250        -0.134890
 C         2.277022        -1.097312         0.813441
 O         3.148365        -0.078519         0.432554
 H         1.679623         2.904427         0.475177
 H         3.290430         2.839113         1.203065
 H         2.977244         2.099527        -0.424421
 H         3.878880         0.374192         2.814727
 H         2.242518         0.732960         3.479574
 H         1.988120        -1.714390         3.289299
 H        -0.535439        -0.547448        -0.435489
 H        -0.543560         1.137683         0.168077
 H         0.628338         0.634979        -1.084386
 H         2.500069        -2.056685         0.197178
