19
Iteration:  3552
 C         1.569087         2.484047         1.614611
 C         1.830365         0.963918         1.603513
 C         1.537909         0.148888         2.842661
 C         2.073746        -1.091854         2.173364
 O         0.997787        -1.513420         1.155422
 C         1.547362        -0.216465         0.415669
 C         1.069367        -0.054004        -0.962579
 C         2.944493        -0.530343         1.043900
 O         3.284283         0.809616         1.322730
 H         0.804965         2.881534         2.320005
 H         2.539610         2.830084         2.125058
 H         1.452934         2.939184         0.616981
 H         2.042053         0.413081         3.820777
 H         0.433606        -0.003123         2.820485
 H         2.359731        -1.997377         2.710320
 H         1.466592        -0.757915        -1.712322
 H        -0.020694         0.028656        -0.864713
 H         1.328890         0.948376        -1.387920
 H         3.794099        -1.034593         0.463704
