19
Iteration:  3512
 C         1.325972         2.327297         1.409289
 C         1.812954         0.959659         1.561224
 C         1.764564         0.111137         2.972888
 C         2.023465        -1.196216         2.128427
 O         0.851364        -1.273133         1.174848
 C         1.618828        -0.203216         0.484969
 C         1.167477         0.118789        -0.872039
 C         2.990453        -0.578815         0.984813
 O         3.350307         0.714885         1.380513
 H         0.279227         2.568519         1.769746
 H         2.036772         3.084725         1.826990
 H         1.295111         2.357226         0.321608
 H         2.398239         0.429553         3.744444
 H         0.653652         0.062940         3.328645
 H         2.357822        -2.023511         2.725976
 H         1.777644        -0.299652        -1.631512
 H         0.161180        -0.276658        -1.168248
 H         1.252635         1.239688        -1.011437
 H         3.700125        -1.232673         0.514229
