19
Iteration:  3521charge 0 multiplicity 1
 C         1.369259         2.419634         1.404473
 C         1.788893         0.914292         1.631136
 C         1.735701         0.089548         2.885032
 C         2.040675        -1.170801         2.171689
 O         0.936962        -1.311589         1.133069
 C         1.533859        -0.273362         0.508273
 C         1.165603         0.079015        -0.899490
 C         2.955106        -0.577274         1.023249
 O         3.333953         0.748882         1.360130
 H         0.432774         2.842176         1.885065
 H         2.298058         3.000542         1.771485
 H         1.364081         2.819281         0.368203
 H         2.437614         0.278209         3.688699
 H         0.675308         0.095191         3.356850
 H         2.062854        -2.065393         2.765649
 H         1.842809        -0.338841        -1.605458
 H         0.092552        -0.187848        -1.020380
 H         1.208484         1.196875        -0.843412
 H         3.764514        -0.973084         0.387562
