19
Iteration:  3483
 C         1.168718         2.234614         1.453452
 C         1.960981         0.993296         1.537620
 C         1.788847         0.119518         2.868353
 C         1.947272        -1.212749         2.187674
 O         0.875042        -1.171671         1.199875
 C         1.611038        -0.156785         0.511308
 C         1.148452         0.114210        -0.899616
 C         2.991983        -0.628675         1.031102
 O         3.446425         0.701834         1.350480
 H         0.156961         1.909549         1.298879
 H         1.292479         2.898367         2.253500
 H         1.482170         2.692385         0.500422
 H         2.442598         0.274919         3.770475
 H         0.748516         0.147292         3.081070
 H         2.052928        -2.054517         2.920362
 H         1.773975        -0.366297        -1.707025
 H         0.091444         0.024785        -1.148631
 H         1.355925         1.150708        -1.147379
 H         3.643653        -1.274224         0.436077
