19
Iteration:  4852
 C         1.204149         2.238894         1.776737
 C         1.818074         0.960636         1.606208
 C         1.858356         0.145381         2.923777
 C         2.271830        -1.107860         2.129777
 O         1.015043        -1.388892         1.145339
 C         1.544125        -0.167270         0.474288
 C         0.971292        -0.107718        -1.004281
 C         2.970440        -0.472766         0.894507
 O         3.280795         0.905310         1.266142
 H         0.104775         2.301123         1.971263
 H         1.617295         2.791097         2.591508
 H         1.446978         2.876778         0.948149
 H         2.524105         0.513067         3.676481
 H         0.810621         0.120005         3.317442
 H         2.459724        -2.055022         2.574687
 H         0.020787         0.408623        -1.094087
 H         1.609804         0.385368        -1.760698
 H         0.859986        -1.163946        -1.245490
 H         3.743450        -0.864227         0.158771
