19
Iteration:  2378
 C         2.020956         2.299273         1.177957
 C         2.266757         0.864685         1.400822
 C         2.326716         0.392446         2.793406
 C         1.989614        -0.991612         2.387271
 O         0.652267        -0.876061         1.751974
 C         1.303297        -0.269471         0.703301
 C         0.330251         0.162192        -0.471415
 C         2.637991        -0.953698         0.797119
 O         3.412454         0.309108         0.690761
 H         1.445193         2.864334         1.942353
 H         2.884896         2.880605         0.918363
 H         1.573685         2.442034         0.218439
 H         3.221370         0.563145         3.324823
 H         1.318959         0.739252         3.256669
 H         2.133032        -1.822841         3.045892
 H        -0.629199        -0.426962        -0.274664
 H         0.290295         1.266946        -0.442551
 H         0.806504        -0.236552        -1.410508
 H         2.993508        -1.806712         0.212687
