19
Iteration:  4702charge 0 multiplicity 1
 C         1.188412         2.394509         1.766276
 C         1.806379         0.994712         1.549187
 C         1.835749         0.088765         2.835189
 C         2.184544        -1.278991         2.082035
 O         0.984194        -1.254519         1.238367
 C         1.536545        -0.246958         0.517452
 C         1.028759        -0.071918        -0.928572
 C         3.081604        -0.531581         0.952497
 O         3.282790         0.854645         1.186546
 H         0.116858         2.544164         1.400920
 H         1.167623         2.839729         2.813463
 H         1.692509         3.040045         1.082208
 H         2.655318         0.405693         3.429128
 H         0.831800         0.089538         3.341629
 H         2.387759        -2.111777         2.733106
 H         1.694207        -0.743441        -1.556377
 H        -0.008158        -0.460508        -0.985827
 H         1.013637         0.954632        -1.250032
 H         3.821254        -0.896633         0.237733
