19
Iteration:  2529charge 0 multiplicity 1
 C         1.933694         2.393850         1.095393
 C         2.139336         0.920137         1.469041
 C         2.253043         0.257038         2.868340
 C         2.112436        -1.111799         2.255371
 O         0.701278        -1.034536         1.824054
 C         1.257858        -0.197565         0.718094
 C         0.539731         0.150327        -0.651486
 C         2.609860        -0.832583         0.815583
 O         3.369562         0.417374         0.831052
 H         2.534768         2.738743         0.164805
 H         0.873317         2.623598         0.837533
 H         2.288278         3.162087         1.785154
 H         3.171763         0.352437         3.377357
 H         1.405536         0.533646         3.581173
 H         2.304286        -2.002903         2.843105
 H         0.933323        -0.446865        -1.434066
 H        -0.497058        -0.138642        -0.578920
 H         0.461670         1.234003        -0.738488
 H         2.818253        -1.696591         0.182009
