19
Iteration:    17charge 0 multiplicity 1
 C         2.562074         2.295148         0.608910
 C         2.533938         0.837659         1.106375
 C         2.622670         0.320428         2.655547
 C         1.924194        -0.991020         2.350168
 O         0.582394        -0.458947         2.215185
 C         1.152509         0.005914         0.944589
 C        -0.032728         0.278332         0.033975
 C         2.211365        -1.111597         0.811131
 O         3.378280        -0.195522         0.427031
 H         1.828455         2.764933         1.276468
 H         3.445609         2.880322         0.871117
 H         2.328182         2.337668        -0.466115
 H         3.621288         0.350557         3.153960
 H         1.953598         0.882329         3.334178
 H         1.997184        -1.832907         3.076142
 H        -0.420126        -0.734264        -0.306965
 H        -0.878565         0.837040         0.520257
 H         0.454228         0.931033        -0.820816
 H         2.186939        -2.125874         0.296726
