19
Iteration:   196charge 0 multiplicity 1
 C         2.616011         2.288098         0.699686
 C         2.274342         0.918395         1.228306
 C         2.687696         0.404266         2.630842
 C         2.044461        -0.961545         2.452422
 O         0.627422        -0.692562         2.194993
 C         1.107791        -0.146102         0.923863
 C         0.149920         0.414510        -0.117786
 C         2.217792        -1.156083         0.879995
 O         3.122613        -0.102439         0.357962
 H         1.993527         3.182511         0.960134
 H         3.733912         2.412072         0.955718
 H         2.557535         2.205554        -0.426150
 H         3.811990         0.344588         2.624453
 H         2.120701         1.154328         3.317197
 H         2.236523        -1.835272         3.155672
 H        -0.903394        -0.035644        -0.029628
 H         0.131440         1.691746         0.048442
 H         0.467173         0.102491        -1.090377
 H         2.233470        -2.210311         0.612422
