19
Iteration:  4996
 C         1.408517         2.508368         1.701444
 C         1.765894         1.016807         1.585805
 C         1.753663         0.015521         2.869074
 C         2.192575        -1.193312         2.073890
 O         1.117226        -1.526420         1.250453
 C         1.514355        -0.199971         0.482498
 C         1.029793        -0.041620        -0.859780
 C         2.945205        -0.471373         0.853748
 O         3.121692         0.935545         1.197522
 H         0.690079         2.535691         2.488365
 H         2.364883         2.972360         2.052947
 H         1.212776         3.012642         0.796892
 H         2.454470         0.366410         3.666557
 H         0.838434        -0.294809         3.351922
 H         2.611476        -2.154692         2.570460
 H         0.062895        -0.631628        -0.920754
 H         0.825010         0.971588        -1.083347
 H         1.732080        -0.442256        -1.548882
 H         3.645729        -1.048631         0.308691
