19
Iteration:  1642
 C         2.575384         2.287996         0.791097
 C         2.420402         0.875939         1.220430
 C         2.715738         0.357205         2.691254
 C         2.028849        -0.961743         2.469172
 O         0.566508        -0.592775         2.195236
 C         1.039877        -0.098596         0.907051
 C         0.055238         0.203722        -0.193012
 C         2.256032        -1.035251         0.809830
 O         3.234618        -0.061898         0.356445
 H         1.649397         2.885501         0.864507
 H         3.431348         2.816172         1.177015
 H         2.877734         2.247966        -0.262091
 H         3.715056         0.270653         2.902128
 H         2.098937         1.000177         3.393335
 H         2.067355        -1.793913         3.153722
 H        -0.797144         0.639393         0.325137
 H         0.361016         1.039214        -0.875827
 H        -0.062962        -0.718378        -0.750292
 H         2.308523        -2.026080         0.238433
