19
Iteration:  1428
 C         2.578574         2.372350         0.609412
 C         2.482187         0.919055         1.216305
 C         2.668522         0.369313         2.754727
 C         1.989044        -0.971463         2.356323
 O         0.583493        -0.630556         2.201337
 C         1.076857        -0.085106         0.897995
 C         0.090849         0.246506        -0.121381
 C         2.208124        -1.074374         0.872582
 O         3.226041        -0.171771         0.448808
 H         2.472085         3.230786         1.272526
 H         3.647807         2.408567         0.311119
 H         1.912636         2.490173        -0.292486
 H         3.745846         0.530469         2.994938
 H         2.023584         0.809908         3.400893
 H         2.051476        -1.718670         3.156526
 H        -0.109179        -0.379806        -0.988333
 H        -0.803561         0.438600         0.404296
 H         0.416021         1.162563        -0.651074
 H         2.127660        -2.019871         0.303757
