19
Iteration:  2813charge 0 multiplicity 1
 C         1.786978         2.476240         1.359207
 C         2.083294         0.977934         1.455952
 C         2.089048         0.289457         2.894488
 C         2.014790        -1.075335         2.204802
 O         0.741603        -1.181629         1.552669
 C         1.358803        -0.159837         0.613229
 C         0.671769        -0.077097        -0.686120
 C         2.733520        -0.725241         0.847307
 O         3.422120         0.509611         0.954444
 H         2.253103         2.928559         0.513569
 H         0.717522         2.664940         1.311338
 H         2.057760         2.909069         2.325639
 H         3.031621         0.429488         3.505549
 H         1.183934         0.409223         3.442808
 H         2.097877        -1.987174         2.811501
 H         0.141611        -1.071883        -0.941170
 H         0.043826         0.827664        -0.671716
 H         1.378690         0.053790        -1.513572
 H         3.197858        -1.443369         0.172458
