19
Iteration:  3632charge 0 multiplicity 1
 C         1.251454         2.348350         1.390650
 C         1.875835         0.906966         1.582982
 C         1.793383         0.098779         2.897451
 C         2.114891        -1.227685         2.161482
 O         0.839213        -1.265130         1.279772
 C         1.571671        -0.222581         0.490994
 C         1.223055         0.202099        -0.831554
 C         2.906499        -0.660619         0.985215
 O         3.360807         0.789778         1.277028
 H         0.154017         2.156686         1.139137
 H         1.274774         3.028236         2.306402
 H         1.733132         2.791747         0.485005
 H         2.464332         0.340347         3.713857
 H         0.694597        -0.002087         3.284988
 H         2.266675        -2.190110         2.694691
 H         0.888878        -0.650177        -1.376733
 H         0.321221         0.797676        -1.074254
 H         2.125233         0.636003        -1.281023
 H         3.621605        -1.201910         0.414389
