19
Iteration:  3247charge 0 multiplicity 1
 C         1.478435         2.445772         1.521226
 C         1.824804         1.001157         1.538142
 C         1.712194         0.204169         2.801992
 C         2.037707        -1.202236         2.095051
 O         0.967341        -1.350100         1.185894
 C         1.572371        -0.227949         0.525508
 C         0.891799        -0.103997        -0.834611
 C         3.012408        -0.601459         0.991753
 O         3.381752         0.816517         1.366543
 H         1.561038         2.714528         2.573191
 H         2.223880         3.015740         0.905031
 H         0.473768         2.753643         1.110454
 H         2.519447         0.746978         3.457380
 H         0.753344         0.074234         3.253320
 H         2.158228        -2.114815         2.664562
 H         1.388764        -0.858523        -1.584753
 H        -0.171000        -0.322303        -0.670325
 H         0.884857         0.851859        -1.377722
 H         3.853312        -1.066510         0.499295
