19
Iteration:  2683
 C         1.777126         2.508614         1.279447
 C         2.152482         0.983058         1.403481
 C         2.127679         0.302863         2.764880
 C         2.046517        -1.123453         2.321375
 O         0.723805        -1.104576         1.683426
 C         1.299039        -0.229828         0.680103
 C         0.602319         0.090872        -0.667702
 C         2.735172        -0.876027         0.937102
 O         3.453328         0.402773         0.797978
 H         1.205781         2.651460         2.189129
 H         2.574878         3.235188         1.187227
 H         0.924695         2.761546         0.516980
 H         3.071265         0.370153         3.362839
 H         1.287692         0.408075         3.400264
 H         2.172657        -1.990772         3.016127
 H         0.575029         1.205763        -0.648906
 H         1.276789        -0.083503        -1.503210
 H        -0.402368        -0.159196        -0.774226
 H         3.179102        -1.609559         0.262919
