19
Iteration:   230
 C         2.484388         2.315339         0.736432
 C         2.459896         0.851813         1.192791
 C         2.741101         0.321038         2.617370
 C         2.015107        -0.984891         2.375300
 O         0.573809        -0.499001         2.212790
 C         1.112363        -0.021897         0.905069
 C         0.039552         0.281525        -0.083707
 C         2.203277        -1.094671         0.808069
 O         3.301534        -0.189948         0.436341
 H         1.615726         2.890247         1.128637
 H         3.428224         2.905593         1.048312
 H         2.469113         2.230974        -0.354239
 H         3.786618         0.345185         2.867203
 H         2.243015         0.945959         3.461151
 H         2.046038        -1.907488         3.039061
 H        -0.817749        -0.422047         0.019032
 H        -0.456954         1.390087        -0.182644
 H         0.433160         0.196650        -1.083024
 H         2.151021        -2.134912         0.397583
