19
Iteration:  4250charge 0 multiplicity 1
 C         1.462623         2.421428         1.589807
 C         1.834258         0.993985         1.467603
 C         1.764026         0.172190         2.929988
 C         2.032653        -1.229658         2.173399
 O         0.838427        -1.269726         1.267054
 C         1.593709        -0.198229         0.486764
 C         1.115262         0.000008        -0.902080
 C         2.947549        -0.594779         0.936114
 O         3.310843         0.741105         1.235536
 H         0.419160         2.323033         1.523542
 H         1.663645         2.920821         2.509170
 H         1.802804         2.972268         0.702454
 H         2.593245         0.298004         3.588695
 H         0.805925         0.016987         3.400819
 H         2.219048        -2.171987         2.802955
 H         0.001475         0.074669        -0.927687
 H         1.694844         0.801298        -1.432156
 H         1.417767        -0.911837        -1.387770
 H         3.573743        -1.196875         0.334824
