19
Iteration:  2333
 C         2.154670         2.453672         1.100226
 C         2.185318         1.038585         1.400106
 C         2.356457         0.399435         2.743045
 C         2.080302        -1.120103         2.267066
 O         0.596299        -0.935851         1.906956
 C         1.174936        -0.214410         0.793854
 C         0.460494         0.050513        -0.479029
 C         2.481420        -0.967728         0.733256
 O         3.353175         0.258654         0.748566
 H         1.123413         2.829732         0.887255
 H         2.620293         3.086424         1.877524
 H         2.826338         2.580925         0.301825
 H         3.383408         0.592539         2.950347
 H         1.672321         0.907494         3.519907
 H         2.273620        -1.963887         2.924809
 H         0.614091        -0.867743        -1.123137
 H        -0.592201         0.231479        -0.201334
 H         0.916148         0.961194        -1.053617
 H         2.815497        -1.767325         0.070232
