19
Iteration:  4956charge 0 multiplicity 1
 C         1.324049         2.280135         1.555611
 C         1.890027         0.955281         1.622136
 C         1.705745         0.060062         2.879056
 C         2.172028        -1.176763         2.078542
 O         1.107643        -1.336744         1.174062
 C         1.665678        -0.193025         0.398163
 C         0.764678        -0.012308        -0.775788
 C         3.036401        -0.450315         0.888115
 O         3.309136         0.877859         1.330368
 H         0.235841         2.152148         1.702834
 H         1.691972         2.854431         2.434328
 H         1.280757         2.979588         0.640390
 H         2.405537         0.289430         3.709943
 H         0.654657         0.032321         3.188066
 H         2.532792        -2.052957         2.618214
 H        -0.174702        -0.434058        -0.441576
 H         0.625064         1.010550        -1.158545
 H         1.038438        -0.705747        -1.624665
 H         3.936664        -0.892312         0.442742
