19
Iteration:  2072charge 0 multiplicity 1
 C         2.286830         2.350274         0.879091
 C         2.289163         0.933586         1.236728
 C         2.499453         0.420267         2.746950
 C         2.113735        -1.065656         2.332809
 O         0.603283        -0.844187         2.044792
 C         1.149592        -0.177776         0.784502
 C         0.180668         0.266371        -0.332907
 C         2.403777        -0.988526         0.834284
 O         3.362523         0.058441         0.656190
 H         1.184059         2.725531         0.945220
 H         2.918992         2.863277         1.742667
 H         2.794373         2.488498        -0.081427
 H         3.603998         0.578518         2.956912
 H         1.837216         0.988993         3.456757
 H         2.484117        -1.874129         2.993624
 H         0.328196        -0.054232        -1.369599
 H        -0.805430        -0.132747        -0.198787
 H         0.003272         1.405563        -0.358201
 H         2.691942        -1.850023         0.263367
