19
Iteration:  4473
 C         1.316663         2.326103         1.367993
 C         1.839396         0.976719         1.531968
 C         1.723994         0.157747         2.751618
 C         2.121763        -1.244995         2.133163
 O         1.072901        -1.420789         1.179018
 C         1.633694        -0.260738         0.520350
 C         0.858533         0.191089        -0.750793
 C         2.999074        -0.543296         0.967923
 O         3.355373         0.795623         1.414963
 H         0.188132         2.417412         1.447830
 H         1.671174         3.025454         2.153537
 H         1.677011         2.797040         0.466918
 H         2.308592         0.378252         3.651962
 H         0.755979        -0.027030         3.319986
 H         2.394269        -2.052734         2.802279
 H         0.016539        -0.487916        -0.924968
 H         0.385976         1.150654        -0.405855
 H         1.632317         0.295543        -1.594091
 H         3.794942        -1.286871         0.645646
