19
Iteration:   813
 C         2.581459         2.239388         0.701969
 C         2.376401         0.846883         1.156766
 C         2.663879         0.386179         2.583364
 C         1.983429        -0.961339         2.401703
 O         0.600914        -0.573878         2.097254
 C         1.155834        -0.069766         0.821604
 C        -0.039633         0.339984         0.018120
 C         2.304977        -1.092487         0.861191
 O         3.282912        -0.156945         0.532341
 H         1.652536         2.756356         1.004717
 H         3.379504         2.866263         1.023352
 H         2.609214         2.344056        -0.370526
 H         3.644161         0.243758         2.652168
 H         2.277682         1.089828         3.313218
 H         2.059751        -1.589433         3.276896
 H        -0.963949        -0.150504         0.406681
 H        -0.197371         1.373017        -0.059162
 H         0.098119         0.104192        -0.996873
 H         2.553504        -2.177916         0.479389
