19
Iteration:  4442charge 0 multiplicity 1
 C         1.361886         2.296498         1.370678
 C         1.822250         0.998916         1.643720
 C         1.747634         0.068850         2.950781
 C         2.152854        -1.217089         2.161997
 O         0.997250        -1.370727         1.274640
 C         1.582771        -0.262626         0.548081
 C         1.039133         0.202280        -0.862836
 C         2.926140        -0.556448         0.902850
 O         3.276850         0.847081         1.242309
 H         0.252263         2.344609         1.520997
 H         1.843360         2.943646         2.166230
 H         1.629323         2.433487         0.321264
 H         2.457350         0.297086         3.744269
 H         0.673426        -0.222229         3.248326
 H         2.451987        -2.150457         2.643529
 H         0.999694        -0.585583        -1.625056
 H        -0.011637         0.535028        -0.726352
 H         1.620563         1.039804        -1.287118
 H         3.692945        -1.176121         0.479527
