19
Iteration:  1382charge 0 multiplicity 1
 C         2.664999         2.376518         0.844528
 C         2.369655         0.866233         1.108651
 C         2.658565         0.413557         2.630354
 C         1.996374        -0.931605         2.455860
 O         0.646899        -0.441121         2.147532
 C         1.104239        -0.172335         0.847901
 C         0.015162         0.184114        -0.087881
 C         2.230535        -1.166707         0.863989
 O         3.219747        -0.178263         0.362807
 H         1.829114         2.982084         1.289406
 H         3.511339         2.718164         1.414144
 H         2.613809         2.712934        -0.263741
 H         3.659952         0.284828         2.822808
 H         2.146867         0.976295         3.418637
 H         2.093822        -1.711094         3.137686
 H        -0.173888        -0.451800        -0.871796
 H        -0.892479         0.255789         0.458346
 H         0.148848         1.030366        -0.728036
 H         2.291368        -2.288022         0.531153
