19
Iteration:  3313charge 0 multiplicity 1
 C         1.327354         2.375736         1.419880
 C         1.713869         0.931746         1.592240
 C         1.845950         0.144337         2.980804
 C         2.088956        -1.220675         2.173257
 O         0.983277        -1.318107         1.253319
 C         1.527908        -0.219583         0.498385
 C         1.220995         0.134647        -0.898039
 C         2.921335        -0.642866         0.992038
 O         3.206328         0.800921         1.227935
 H         2.269843         2.876242         1.137705
 H         0.641130         2.643108         0.537708
 H         0.814337         2.742464         2.367099
 H         2.846741         0.489162         3.478886
 H         0.972422        -0.007588         3.654955
 H         2.152210        -2.249025         2.552039
 H         0.542535        -0.725264        -1.314935
 H         0.800185         1.149561        -0.908232
 H         2.141136         0.150616        -1.487083
 H         3.606722        -1.390333         0.518163
