19
Iteration:    61
 C         2.641749         2.251038         0.633724
 C         2.384489         0.830304         1.105440
 C         2.687033         0.399206         2.584554
 C         2.020170        -0.969581         2.466313
 O         0.557247        -0.580415         2.240464
 C         1.011588        -0.155718         0.919612
 C         0.000664         0.400896        -0.086822
 C         2.307565        -1.098712         0.884362
 O         3.231101        -0.128003         0.440302
 H         1.992066         3.028730         1.054422
 H         3.599804         2.558860         1.059967
 H         2.777855         2.238353        -0.464409
 H         3.826562         0.212344         2.690967
 H         2.424482         1.011787         3.435109
 H         2.133448        -1.819152         3.123423
 H        -0.189096        -0.350972        -0.906941
 H        -1.015860         0.614729         0.465911
 H         0.344095         1.466824        -0.487342
 H         2.414653        -2.083226         0.393758
