19
Iteration:  4910charge 0 multiplicity 1
 C         1.150226         2.186682         1.493610
 C         1.833032         0.960093         1.630783
 C         1.861650         0.040480         2.918455
 C         2.233095        -1.156547         2.127657
 O         1.129714        -1.409609         1.287238
 C         1.483665        -0.229795         0.501977
 C         1.007387         0.224070        -0.798113
 C         2.986980        -0.463445         0.862470
 O         3.195805         0.813114         1.216906
 H         0.279450         2.024783         0.880920
 H         0.986700         2.857428         2.418247
 H         1.796119         2.737767         0.752115
 H         2.777295         0.426373         3.432678
 H         1.004655         0.101721         3.547797
 H         2.561323        -2.215525         2.436593
 H         0.133934         0.930654        -0.636028
 H         1.827222         0.772999        -1.172743
 H         0.618863        -0.474476        -1.483175
 H         3.720696        -0.917365         0.255457
