19
Iteration:   577charge 0 multiplicity 1
 C         2.487673         2.324542         0.899575
 C         2.343791         0.796986         1.148104
 C         2.793821         0.403541         2.517133
 C         1.938613        -0.876437         2.444545
 O         0.602825        -0.461254         2.160676
 C         1.097035        -0.146386         0.893677
 C         0.125537         0.230588        -0.180833
 C         2.270854        -1.167134         0.905502
 O         3.195635        -0.175567         0.386037
 H         1.629217         2.641011         1.611767
 H         3.434651         2.592347         1.330439
 H         2.478844         2.593660        -0.162472
 H         3.907889         0.227014         2.563938
 H         2.445215         1.077657         3.397127
 H         1.930514        -1.602919         3.187868
 H        -0.885227        -0.163371        -0.102576
 H         0.103687         1.425070        -0.086275
 H         0.627258         0.098619        -1.108815
 H         2.427010        -2.054205         0.425626
