19
Iteration:  1411
 C         2.642714         2.248513         0.736813
 C         2.386042         0.833458         1.171693
 C         2.663393         0.446167         2.595670
 C         1.996459        -0.941511         2.528016
 O         0.616844        -0.586760         2.137975
 C         1.081552        -0.047684         0.907274
 C        -0.015168         0.283383        -0.139250
 C         2.265545        -1.090310         0.810267
 O         3.256948        -0.143127         0.476439
 H         2.167817         2.876325         1.517791
 H         3.686035         2.585653         0.542955
 H         2.118164         2.462712        -0.159918
 H         3.756862         0.140226         2.741705
 H         2.244557         1.213201         3.425070
 H         2.169186        -1.801669         3.258076
 H        -0.099400        -0.589108        -0.926941
 H        -1.121342         0.319743         0.207402
 H         0.088831         1.183597        -0.769398
 H         2.330911        -2.060386         0.350431
