19
Iteration:  4476charge 0 multiplicity 1
 C         1.311175         2.327782         1.377349
 C         1.859376         0.947255         1.549742
 C         1.711932         0.158364         2.770579
 C         2.109167        -1.242629         2.119910
 O         1.066253        -1.411106         1.170961
 C         1.642224        -0.242153         0.489159
 C         0.860113         0.155840        -0.758158
 C         3.019320        -0.546429         0.982085
 O         3.359205         0.807137         1.406393
 H         0.232247         2.402278         1.428641
 H         1.692612         3.055912         2.172756
 H         1.660960         2.924484         0.484553
 H         2.293815         0.343702         3.658215
 H         0.726702        -0.006520         3.317211
 H         2.397982        -1.982522         2.883570
 H        -0.046544        -0.471092        -0.858700
 H         0.495649         1.091986        -0.360925
 H         1.480053         0.279257        -1.610290
 H         3.695564        -1.232693         0.611514
