19
Iteration:  3428charge 0 multiplicity 1
 C         1.506116         2.444035         1.525410
 C         1.824332         0.980100         1.608102
 C         1.525981         0.122690         2.895585
 C         2.128652        -1.207849         2.090861
 O         0.965636        -1.435942         1.212853
 C         1.517875        -0.238492         0.518201
 C         1.142985         0.002470        -0.939152
 C         2.984825        -0.493827         0.978058
 O         3.263893         0.814178         1.328223
 H         0.748790         2.635641         0.779815
 H         1.207905         2.919177         2.415102
 H         2.460349         2.888360         1.284781
 H         2.146988         0.273359         3.817305
 H         0.482597        -0.000883         3.233583
 H         2.463203        -2.040488         2.746019
 H         0.770605        -0.856365        -1.532677
 H         0.391095         0.823015        -1.008866
 H         1.997063         0.440349        -1.486372
 H         3.670844        -1.003783         0.309211
