19
Iteration:  1862
 C         2.493036         2.305161         0.865037
 C         2.311402         0.905386         1.308195
 C         2.626671         0.368724         2.695043
 C         2.046462        -0.952300         2.384045
 O         0.623664        -0.629602         2.119086
 C         1.101394        -0.183160         0.899600
 C         0.096486         0.185286        -0.365277
 C         2.328317        -1.054769         0.834484
 O         3.245172         0.013705         0.518905
 H         2.985453         2.221949        -0.078840
 H         1.497867         2.665266         0.517184
 H         2.780294         3.157730         1.565577
 H         3.724571         0.493784         2.913695
 H         2.074069         0.841754         3.437974
 H         2.156589        -1.910555         2.967878
 H        -0.081370        -0.500355        -1.161773
 H        -0.779300         0.543933         0.076085
 H         0.678931         0.899528        -0.892000
 H         2.583015        -2.013105         0.340338
