19
Iteration:  4734charge 0 multiplicity 1
 C         1.172876         2.224976         1.645959
 C         1.898406         0.935715         1.647710
 C         1.854427         0.155432         2.961932
 C         2.220054        -1.206332         2.090463
 O         0.962626        -1.317295         1.199982
 C         1.482837        -0.139192         0.470502
 C         1.019984        -0.021399        -0.939123
 C         3.022691        -0.467939         0.873468
 O         3.323270         0.855039         1.264470
 H         0.049357         1.910903         1.710311
 H         1.314790         3.004382         2.482775
 H         1.368966         2.757422         0.730896
 H         2.649246         0.414430         3.616887
 H         0.905636         0.226800         3.556882
 H         2.425128        -2.152727         2.586521
 H         0.930049        -1.084413        -1.228139
 H        -0.006618         0.366738        -1.027028
 H         1.712055         0.484271        -1.578695
 H         3.613388        -0.857691         0.043808
