19
Iteration:  4056
 C         1.489111         2.485709         1.684688
 C         1.969722         0.982545         1.502962
 C         1.739761         0.152810         2.913726
 C         2.035782        -1.132278         2.150309
 O         0.870455        -1.179883         1.181617
 C         1.567349        -0.210601         0.396296
 C         0.912479        -0.198827        -0.983724
 C         2.991377        -0.595579         0.995762
 O         3.372922         0.746208         1.330653
 H         0.604154         2.526063         1.078596
 H         1.328244         2.660181         2.732041
 H         2.325460         3.114026         1.236768
 H         2.636009         0.323112         3.544377
 H         0.761606         0.134762         3.333159
 H         1.812636        -2.097759         2.658819
 H         0.875905        -1.203130        -1.409880
 H        -0.137025         0.085171        -0.814595
 H         1.360911         0.353391        -1.704345
 H         3.660213        -1.309371         0.563338
