19
Iteration:   941
 C         2.609131         2.266974         0.646671
 C         2.479713         0.843230         1.195999
 C         2.761347         0.323852         2.688750
 C         1.941365        -0.996360         2.411023
 O         0.596151        -0.455745         2.117006
 C         1.116648         0.018320         0.900867
 C        -0.097512         0.211708        -0.039790
 C         2.250677        -1.108249         0.851538
 O         3.262598        -0.120309         0.486415
 H         1.767673         2.876138         1.032253
 H         3.580096         2.828154         0.955095
 H         2.399861         2.205259        -0.452668
 H         3.952877         0.306902         2.795560
 H         2.268667         0.777086         3.577969
 H         1.970030        -1.887076         2.992402
 H        -0.235701        -0.628617        -0.791510
 H        -1.036380         0.463717         0.404025
 H         0.054533         0.969618        -0.852115
 H         2.372192        -1.966721         0.169520
