19
Iteration:  4118charge 0 multiplicity 1
 C         1.519596         2.343036         1.398821
 C         1.875051         0.930322         1.584153
 C         1.794619         0.115917         2.887953
 C         2.002961        -1.193595         2.156239
 O         0.850467        -1.341319         1.330867
 C         1.485359        -0.274350         0.511981
 C         1.161934         0.185725        -0.890856
 C         2.932901        -0.593996         1.003465
 O         3.275864         0.747869         1.226031
 H         0.472161         2.635803         1.376263
 H         1.989532         3.146000         2.012925
 H         1.829328         2.624583         0.362315
 H         2.546881         0.489340         3.552149
 H         0.822340         0.152130         3.524001
 H         2.025704        -2.058091         2.878126
 H         1.600371        -0.399312        -1.693958
 H         0.017273         0.249023        -0.911254
 H         1.495283         1.298198        -0.939504
 H         3.490693        -1.363966         0.447292
