19
Iteration:  2181charge 0 multiplicity 1
 C         2.296699         2.366896         1.032418
 C         2.256781         0.946494         1.295928
 C         2.457827         0.403291         2.722128
 C         2.034620        -1.113645         2.375840
 O         0.592613        -0.778128         1.944266
 C         1.178777        -0.144681         0.804982
 C         0.282079         0.103072        -0.382189
 C         2.534530        -1.005371         0.804415
 O         3.308635         0.174608         0.569068
 H         2.915740         2.928372         1.787451
 H         2.458264         2.664267        -0.043812
 H         1.364088         2.784357         1.376919
 H         3.429540         0.742456         3.142438
 H         1.623240         0.845221         3.386855
 H         2.078695        -1.919341         3.144449
 H        -0.748507         0.044893         0.053119
 H         0.465279         1.087857        -0.788709
 H         0.387122        -0.867592        -0.950820
 H         2.684791        -1.889302         0.170908
