19
Iteration:  3937
 C         1.359263         2.445458         1.627048
 C         1.886487         1.037529         1.616316
 C         1.757094         0.123758         2.904812
 C         2.062831        -1.163526         2.181582
 O         0.879911        -1.182149         1.177148
 C         1.467158        -0.153642         0.453693
 C         1.112936        -0.089389        -0.972346
 C         2.884658        -0.624038         0.958433
 O         3.454091         0.671059         1.284989
 H         0.508801         2.576435         2.265004
 H         2.183537         3.064848         1.934543
 H         1.051929         2.729903         0.570382
 H         2.525411         0.236853         3.708449
 H         0.764181         0.234593         3.280751
 H         2.253719        -2.213801         2.577877
 H         1.484989        -1.116652        -1.329526
 H        -0.016682        -0.213962        -1.125027
 H         1.644032         0.674221        -1.515399
 H         3.476828        -1.257870         0.341969
