19
Iteration:  2469charge 0 multiplicity 1
 C         2.071336         2.555997         1.280525
 C         2.227512         0.974496         1.391360
 C         2.257260         0.419716         2.789833
 C         2.084722        -1.042208         2.287524
 O         0.681943        -1.008665         1.735881
 C         1.205225        -0.252869         0.681076
 C         0.370087        -0.014196        -0.587285
 C         2.632363        -0.896084         0.819772
 O         3.386908         0.266532         0.793101
 H         2.964457         3.034121         1.497207
 H         1.604773         2.931567         0.362662
 H         1.307715         2.635935         2.078315
 H         3.264319         0.601888         3.341466
 H         1.399851         0.745768         3.310700
 H         2.252892        -1.961140         2.889151
 H         0.581490         0.950570        -1.090947
 H         0.555572        -0.916539        -1.237076
 H        -0.699807         0.097088        -0.484917
 H         3.064078        -1.747536         0.253238
