19
Iteration:   355charge 0 multiplicity 1
 C         2.577667         2.344578         0.707346
 C         2.383886         0.911760         1.186193
 C         2.694984         0.397966         2.591254
 C         1.916634        -0.920391         2.370156
 O         0.584441        -0.570620         2.072408
 C         1.116976        -0.106107         0.817239
 C         0.005332         0.299278         0.000139
 C         2.289705        -1.128264         0.910589
 O         3.292256        -0.217576         0.529275
 H         1.896653         2.926316         1.410619
 H         3.689596         2.587465         0.678804
 H         2.119731         2.455151        -0.293284
 H         3.795670         0.218930         2.459601
 H         2.471824         0.865103         3.507748
 H         2.018014        -1.699569         3.156550
 H        -0.847654        -0.411888        -0.041804
 H        -0.297838         1.187501         0.427642
 H         0.449007         0.461648        -1.054287
 H         2.421791        -2.130825         0.466149
