19
Iteration:  2110charge 0 multiplicity 1
 C         2.388759         2.401599         0.929457
 C         2.249535         0.911478         1.315030
 C         2.421733         0.419847         2.729986
 C         2.029779        -1.067765         2.428967
 O         0.573415        -0.837336         1.943915
 C         1.212038        -0.146856         0.839415
 C         0.285216         0.094689        -0.261455
 C         2.473068        -0.958978         0.786174
 O         3.267711         0.159063         0.522822
 H         1.940671         3.098389         1.619222
 H         3.430235         2.523347         0.992110
 H         2.063955         2.802072        -0.061832
 H         3.441277         0.578518         3.079896
 H         1.678534         0.888692         3.413477
 H         2.219058        -1.984066         2.985465
 H         0.242142        -0.782807        -0.930351
 H        -0.653391         0.165066         0.359819
 H         0.504140         0.949596        -0.842367
 H         2.521766        -1.798304         0.043977
