19
Iteration:  3471
 C         1.199366         2.311437         1.474122
 C         1.904569         0.923110         1.613682
 C         1.722066         0.196538         2.889656
 C         1.974601        -1.152951         2.175947
 O         0.824463        -1.236392         1.159920
 C         1.664263        -0.234227         0.486698
 C         1.190951         0.130110        -0.871322
 C         3.020471        -0.631201         0.960389
 O         3.448664         0.690769         1.307828
 H         0.163648         2.069786         1.214487
 H         1.070437         2.769274         2.428230
 H         1.556041         3.036163         0.764854
 H         2.484370         0.634312         3.528095
 H         0.786907         0.256676         3.464815
 H         2.107569        -2.197059         2.485711
 H         1.575322        -0.673861        -1.544297
 H         0.085497        -0.049192        -0.824553
 H         1.494171         1.144674        -1.123899
 H         3.780989        -1.330807         0.707506
