19
Iteration:   972charge 0 multiplicity 1
 C         2.643525         2.281703         0.683768
 C         2.371735         0.871604         1.176933
 C         2.619054         0.479410         2.596301
 C         2.016523        -0.921393         2.453152
 O         0.592610        -0.693664         2.155827
 C         1.065077        -0.114447         0.919489
 C         0.042570         0.377681        -0.030380
 C         2.277966        -1.132655         0.822822
 O         3.223191        -0.158542         0.449035
 H         2.387583         2.946855         1.531475
 H         3.731336         2.282849         0.297262
 H         2.230968         2.317190        -0.354409
 H         3.753324         0.532686         2.809626
 H         2.035898         0.980061         3.309950
 H         2.172396        -1.703788         3.236584
 H        -0.447110        -0.440633        -0.581952
 H        -0.747999         1.014463         0.373585
 H         0.679205         1.053366        -0.690017
 H         2.276930        -2.020547         0.268454
