19
Iteration:   575
 C         2.485145         2.323863         0.892780
 C         2.349638         0.805363         1.153667
 C         2.806300         0.409832         2.531885
 C         1.939826        -0.889700         2.440100
 O         0.595602        -0.465150         2.172455
 C         1.083552        -0.135338         0.879895
 C         0.126404         0.225820        -0.179627
 C         2.269995        -1.163963         0.908752
 O         3.203479        -0.178178         0.380754
 H         1.691270         2.678155         1.604566
 H         3.446837         2.618095         1.334966
 H         2.435415         2.581684        -0.186187
 H         3.883497         0.213467         2.578728
 H         2.401487         1.125908         3.405138
 H         1.985272        -1.694419         3.230672
 H        -0.946389        -0.180273        -0.162995
 H         0.120933         1.411260        -0.103840
 H         0.645873         0.135290        -1.139518
 H         2.382856        -2.072244         0.394974
