19
Iteration:  4660charge 0 multiplicity 1
 C         1.382718         2.469126         1.509305
 C         1.781962         0.976805         1.670287
 C         1.698151         0.094858         2.845343
 C         2.264793        -1.212287         2.176377
 O         1.118225        -1.533061         1.211573
 C         1.497494        -0.239263         0.489221
 C         0.855078         0.104528        -0.871435
 C         3.030677        -0.480794         0.885120
 O         3.262849         0.825671         1.308384
 H         0.353885         2.523227         1.324871
 H         1.400407         3.040383         2.450434
 H         2.028585         2.901310         0.782829
 H         2.198937         0.588718         3.665836
 H         0.672277        -0.225573         3.165356
 H         2.575058        -2.168895         2.551210
 H         1.786832         0.189269        -1.553652
 H         0.230312        -0.675094        -1.351271
 H         0.332823         1.051879        -0.883738
 H         3.783449        -1.025093         0.417685
