19
Iteration:  1550charge 0 multiplicity 1
 C         2.619116         2.450671         0.688794
 C         2.417932         0.950394         1.184242
 C         2.686595         0.368878         2.653209
 C         1.948822        -1.013319         2.471235
 O         0.577123        -0.698269         2.253286
 C         1.041340        -0.076135         0.942033
 C         0.092230         0.204072        -0.176912
 C         2.231985        -1.053864         0.819309
 O         3.234059        -0.111877         0.412328
 H         1.569684         2.873648         0.615853
 H         3.428716         3.099760         1.208093
 H         3.064971         2.353524        -0.337068
 H         3.832127         0.142994         2.711728
 H         2.357880         0.790639         3.545339
 H         2.092508        -1.948689         3.094689
 H        -0.967492         0.196063         0.222247
 H         0.097454         1.250864        -0.499463
 H         0.355169        -0.389346        -1.105699
 H         2.296129        -1.941080         0.259229
