19
Iteration:   433
 C         2.581987         2.276086         0.700139
 C         2.383532         0.900521         1.265089
 C         2.807627         0.305550         2.630644
 C         1.966592        -0.919857         2.428607
 O         0.581102        -0.565488         2.229028
 C         1.001681        -0.104405         0.949385
 C         0.095476         0.265629        -0.271975
 C         2.199031        -1.034131         0.835877
 O         3.180307        -0.091831         0.460538
 H         1.714219         2.951844         0.927068
 H         3.402105         2.775312         1.282064
 H         2.757429         1.946995        -0.358430
 H         3.819839        -0.071309         2.386085
 H         2.792284         1.014135         3.539461
 H         2.238300        -1.829145         3.087554
 H        -0.511651        -0.687598        -0.293187
 H        -0.456921         1.172722        -0.074722
 H         0.839654         0.382406        -1.037411
 H         2.346881        -1.969058         0.402289
