19
Iteration:  3923charge 0 multiplicity 1
 C         1.512364         2.490024         1.680853
 C         1.907547         0.986367         1.569405
 C         1.710174         0.129268         2.851137
 C         1.983434        -1.182477         2.050484
 O         0.835499        -1.292809         1.262344
 C         1.542539        -0.160368         0.518584
 C         1.144015        -0.199004        -0.968942
 C         2.910980        -0.528296         0.915678
 O         3.332890         0.758906         1.293496
 H         0.602765         2.562205         2.316145
 H         2.345614         3.130491         2.100672
 H         1.283910         3.002973         0.740133
 H         2.425626         0.573419         3.459937
 H         0.720222        -0.014942         3.401965
 H         2.270143        -2.086058         2.637780
 H         1.468158        -1.057932        -1.461811
 H         0.058576        -0.046309        -1.075537
 H         1.507064         0.668422        -1.528055
 H         3.671150        -1.171344         0.445672
