19
Iteration:    57
 C         2.631172         2.224505         0.625227
 C         2.384882         0.815562         1.127088
 C         2.730070         0.400041         2.631718
 C         2.011487        -0.932409         2.435757
 O         0.577992        -0.573784         2.199759
 C         1.000381        -0.127772         0.899975
 C        -0.034248         0.389649        -0.055705
 C         2.286715        -1.113826         0.884001
 O         3.256393        -0.120395         0.459870
 H         1.919793         2.952578         0.955898
 H         3.599217         2.485007         1.047665
 H         2.733228         2.343319        -0.420762
 H         3.729258         0.211701         2.597886
 H         2.411116         0.969803         3.517720
 H         2.144159        -1.810443         3.162568
 H        -0.210071        -0.303413        -0.924574
 H        -0.924657         0.611632         0.409049
 H         0.304722         1.364319        -0.506426
 H         2.380482        -2.152191         0.374265
