19
Iteration:  2553charge 0 multiplicity 1
 C         1.954739         2.419932         1.146684
 C         2.151881         0.934550         1.424641
 C         2.192530         0.399534         2.890638
 C         2.048229        -1.070280         2.268606
 O         0.718221        -1.156920         1.645349
 C         1.289590        -0.163103         0.719841
 C         0.490044         0.118132        -0.517886
 C         2.662624        -0.860510         0.826723
 O         3.391081         0.369406         0.824926
 H         1.878902         2.688904         0.054248
 H         1.012219         2.750653         1.574498
 H         2.783337         3.103094         1.455879
 H         3.191029         0.602651         3.270661
 H         1.446978         0.585816         3.645409
 H         2.135263        -1.962531         2.912072
 H         0.534384        -0.779309        -1.160926
 H        -0.590543         0.379785        -0.363671
 H         0.864499         1.003786        -0.906264
 H         3.098657        -1.678791         0.220556
