19
Iteration:  2046charge 0 multiplicity 1
 C         2.238001         2.376072         0.926098
 C         2.332947         0.941444         1.294929
 C         2.488334         0.328714         2.750216
 C         1.970423        -1.026979         2.344656
 O         0.645764        -0.658891         1.948581
 C         1.221082        -0.151354         0.787415
 C         0.191236         0.175092        -0.190667
 C         2.470921        -1.036039         0.826065
 O         3.352478         0.033962         0.551835
 H         1.231459         2.426863         0.613191
 H         2.499223         3.035165         1.727761
 H         2.887421         2.591640         0.053177
 H         3.600212         0.289616         2.914015
 H         1.948777         0.890549         3.452368
 H         2.103622        -1.816940         3.072593
 H         0.567061         0.324510        -1.226180
 H        -0.491619        -0.708173        -0.342072
 H        -0.423252         1.048520        -0.016023
 H         2.725379        -1.927176         0.219882
