19
Iteration:   513
 C         2.688265         2.222491         0.626771
 C         2.339148         0.902529         1.207841
 C         2.665359         0.336142         2.663466
 C         1.979269        -0.952507         2.437919
 O         0.569207        -0.636403         2.163654
 C         1.080413        -0.088800         0.891827
 C        -0.022161         0.326729        -0.133985
 C         2.348012        -1.097927         0.866306
 O         3.215765        -0.057759         0.474669
 H         2.318733         3.119497         1.276185
 H         3.730731         2.274393         0.347698
 H         2.239139         2.461680        -0.350249
 H         3.735767         0.260428         2.928364
 H         2.293336         0.895960         3.532534
 H         2.114635        -1.605527         3.222962
 H        -0.509903        -0.476343        -0.591927
 H        -0.757119         0.863603         0.526182
 H         0.374814         1.012489        -0.843055
 H         2.523002        -2.049625         0.358807
