19
Iteration:  2092
 C         2.380558         2.397273         0.932881
 C         2.341157         0.931485         1.325067
 C         2.437596         0.432093         2.780511
 C         2.009797        -1.006216         2.397392
 O         0.664588        -0.922894         1.965793
 C         1.168159        -0.174690         0.857435
 C         0.224137         0.200513        -0.268787
 C         2.432230        -1.014841         0.802496
 O         3.253479         0.145374         0.465008
 H         1.446669         2.884285         1.169086
 H         3.340926         2.939420         1.191692
 H         2.378394         2.344957        -0.161078
 H         3.468037         0.452581         3.317571
 H         1.607738         0.771720         3.348125
 H         2.022841        -1.724917         3.216778
 H         0.420997        -0.358510        -1.193789
 H        -0.839577         0.070257        -0.159357
 H         0.401936         1.273668        -0.634143
 H         2.711447        -1.967433         0.426904
