19
Iteration:  1793charge 0 multiplicity 1
 C         2.544452         2.250295         0.872519
 C         2.314322         0.853623         1.147099
 C         2.594935         0.428258         2.679784
 C         2.043279        -0.972579         2.434501
 O         0.635647        -0.675853         2.126888
 C         1.065629        -0.093831         0.854779
 C         0.067345         0.186095        -0.276073
 C         2.341381        -1.046925         0.869664
 O         3.262394         0.015565         0.480803
 H         3.659702         2.398448         0.956594
 H         2.432626         2.499202        -0.194166
 H         1.884562         2.881338         1.486088
 H         3.616757         0.637664         2.859712
 H         2.088970         1.115338         3.474289
 H         2.139860        -1.688446         3.245460
 H         0.418096         0.713921        -1.153300
 H        -0.498086        -0.763136        -0.426482
 H        -0.516049         0.999264         0.023002
 H         2.316490        -2.053742         0.358863
