19
Iteration:  4379
 C         1.400169         2.398842         1.750653
 C         1.917346         1.001393         1.635436
 C         1.734426         0.153768         2.840686
 C         2.073428        -1.137465         2.183394
 O         0.907250        -1.238530         1.230565
 C         1.542028        -0.267651         0.374383
 C         1.023263        -0.173013        -1.030158
 C         2.990956        -0.554412         0.960530
 O         3.347868         0.826554         1.196644
 H         0.452858         2.284422         2.276484
 H         1.940304         2.826587         2.680114
 H         1.249080         3.211823         0.991085
 H         2.275821         0.540258         3.699827
 H         0.689529         0.013848         3.299910
 H         2.032045        -2.161937         2.613943
 H         1.938589        -0.290343        -1.688367
 H         0.468235        -1.143732        -1.215839
 H         0.474321         0.724385        -1.241758
 H         3.806529        -1.020722         0.498830
