19
Iteration:   280
 C         2.651940         2.275199         0.818492
 C         2.463194         0.856037         1.177685
 C         2.755506         0.411222         2.551086
 C         1.935940        -0.886961         2.476239
 O         0.581131        -0.587323         2.195484
 C         1.047138        -0.116668         0.897320
 C         0.023891         0.257179        -0.192048
 C         2.258759        -1.093995         0.963039
 O         3.160228        -0.127608         0.335772
 H         1.831797         2.790234         1.452880
 H         3.748130         2.492149         0.934732
 H         2.407920         2.635814        -0.228446
 H         3.826359         0.027997         2.669280
 H         2.620399         1.168912         3.317943
 H         2.012928        -1.673440         3.227959
 H        -0.371027        -0.562228        -0.843086
 H        -0.812548         0.691946         0.320154
 H         0.519115         0.976225        -0.914834
 H         2.280479        -2.097201         0.601469
