19
Iteration:   647charge 0 multiplicity 1
 C         2.642896         2.236505         0.595814
 C         2.307240         0.908055         1.231936
 C         2.681300         0.387797         2.695331
 C         1.963429        -1.016485         2.398594
 O         0.620931        -0.670643         2.168996
 C         1.060465        -0.042053         0.906213
 C         0.080190         0.306349        -0.074065
 C         2.267167        -1.007829         0.859120
 O         3.218690        -0.042637         0.442633
 H         1.993021         3.024549         0.840505
 H         3.725711         2.381762         0.934573
 H         2.798883         1.945412        -0.446050
 H         3.763568         0.372959         2.795036
 H         2.231322         0.754634         3.527786
 H         1.986818        -1.830994         3.214392
 H        -0.583309        -0.555224        -0.113159
 H        -0.496734         1.099922         0.174696
 H         0.487776         0.526846        -1.102157
 H         2.189705        -2.133662         0.376460
