19
Iteration:  1870charge 0 multiplicity 1
 C         2.441067         2.351522         0.836265
 C         2.314775         0.955900         1.233738
 C         2.624682         0.422396         2.693010
 C         2.062253        -1.057463         2.388786
 O         0.592350        -0.661987         2.153831
 C         1.076731        -0.219854         0.859769
 C         0.202625         0.199887        -0.294206
 C         2.297225        -1.035005         0.787069
 O         3.264964        -0.003498         0.560172
 H         3.044116         2.347748        -0.090073
 H         1.468913         2.750780         0.602783
 H         3.093961         2.900128         1.535677
 H         3.612758         0.661808         3.028326
 H         1.919400         0.981364         3.443603
 H         2.282826        -1.994794         2.942778
 H        -0.275560        -0.588572        -0.909844
 H        -0.676664         0.866206         0.019674
 H         0.831559         0.797350        -0.931772
 H         2.315951        -2.047998         0.228942
