19
Iteration:  3495
 C         1.244926         2.231776         1.361721
 C         2.002907         0.921329         1.624202
 C         1.699037         0.093256         2.838666
 C         2.033709        -1.206769         2.153729
 O         0.900356        -1.184394         1.259236
 C         1.566769        -0.129238         0.524614
 C         1.172851         0.191813        -0.973052
 C         2.932402        -0.675748         1.042311
 O         3.385089         0.744181         1.374897
 H         0.261235         1.963420         1.685896
 H         1.504101         3.061293         1.993786
 H         1.190357         2.706555         0.363429
 H         2.533321         0.369497         3.619893
 H         0.795016         0.180842         3.319636
 H         2.011737        -2.226899         2.652471
 H         1.784742        -0.520340        -1.631476
 H         0.195531        -0.255978        -0.952692
 H         1.152077         1.240084        -1.179498
 H         3.763554        -1.144751         0.459014
