19
Iteration:  2680charge 0 multiplicity 1
 C         1.777615         2.511633         1.294027
 C         2.131651         0.990657         1.387584
 C         2.168403         0.277557         2.764933
 C         2.041058        -1.106602         2.322157
 O         0.717333        -1.122682         1.698994
 C         1.313164        -0.221930         0.689125
 C         0.609447         0.090234        -0.668826
 C         2.720112        -0.873600         0.901556
 O         3.450200         0.394592         0.810956
 H         1.149841         2.663419         2.224263
 H         2.557853         3.261811         1.165766
 H         1.118101         2.806619         0.466950
 H         3.029266         0.485226         3.403919
 H         1.181619         0.506289         3.371250
 H         2.143436        -1.962397         2.974598
 H         0.496925         1.189016        -0.704183
 H         1.346736        -0.033618        -1.489688
 H        -0.518218        -0.244276        -0.849292
 H         3.260728        -1.606877         0.327640
