19
Iteration:  2352
 C         2.073849         2.472766         1.078165
 C         2.203451         0.947224         1.317516
 C         2.370628         0.308187         2.796948
 C         2.005303        -1.043165         2.330229
 O         0.655443        -0.946026         1.812740
 C         1.247253        -0.152692         0.778315
 C         0.379900         0.092671        -0.492241
 C         2.569587        -0.942653         0.886962
 O         3.373246         0.231232         0.699729
 H         1.084107         2.765583         1.501826
 H         2.799964         3.104036         1.685394
 H         2.213815         2.888365         0.046535
 H         3.439346         0.487176         3.115359
 H         1.587157         0.639121         3.452198
 H         2.170560        -1.918873         2.989470
 H        -0.041758        -0.829733        -0.835742
 H        -0.326017         0.868979        -0.212466
 H         1.110648         0.484621        -1.243835
 H         2.877575        -1.806568         0.288892
