19
Iteration:  3179
 C         1.370662         2.377794         1.420268
 C         1.907461         0.959818         1.566850
 C         1.849799         0.218549         2.871213
 C         2.113676        -1.163956         2.163579
 O         0.883147        -1.290505         1.309354
 C         1.519128        -0.278235         0.539443
 C         0.993615         0.097988        -0.799209
 C         2.969024        -0.690551         0.942791
 O         3.327880         0.725173         1.165665
 H         0.269215         2.162487         1.332087
 H         1.549820         3.014333         2.291397
 H         1.752248         3.035036         0.635874
 H         2.698356         0.447110         3.573231
 H         0.930862         0.175341         3.439860
 H         2.148069        -1.919373         2.963252
 H         1.822963         0.628161        -1.259761
 H         0.631463        -0.744099        -1.397516
 H         0.135584         0.821793        -0.717454
 H         3.591140        -1.392883         0.413388
