19
Iteration:   690charge 0 multiplicity 1
 C         2.568468         2.317037         0.772088
 C         2.408414         0.867435         1.134333
 C         2.564372         0.481134         2.573983
 C         2.002371        -0.912846         2.405843
 O         0.651801        -0.597282         2.167956
 C         1.118874        -0.043324         0.885694
 C         0.007370         0.303939        -0.066027
 C         2.226311        -1.140808         0.882030
 O         3.319229        -0.290283         0.438289
 H         2.464475         2.895895         1.656909
 H         3.648891         2.630463         0.507327
 H         1.963544         2.772650        -0.030358
 H         3.620295         0.550838         2.928131
 H         1.901788         1.050092         3.092739
 H         2.255928        -1.804066         3.080040
 H        -0.258414        -0.492769        -0.776987
 H        -0.895741         0.709856         0.392640
 H         0.337261         1.158020        -0.783036
 H         2.241968        -2.312620         0.518031
