19
Iteration:  1933
 C         2.407278         2.344978         0.872364
 C         2.262727         0.833007         1.221039
 C         2.513989         0.378756         2.629898
 C         2.013445        -1.031679         2.379056
 O         0.657158        -0.653660         2.042221
 C         1.180187        -0.106040         0.728686
 C         0.065772         0.216055        -0.250201
 C         2.428331        -1.007166         0.873657
 O         3.356931         0.001231         0.659227
 H         1.746013         2.566317        -0.019810
 H         2.104227         3.028558         1.670279
 H         3.405679         2.667688         0.619505
 H         3.558637         0.392913         2.818903
 H         1.902955         0.836687         3.505978
 H         2.126533        -1.848990         3.088750
 H        -0.947748         0.154965         0.264315
 H         0.219331         1.215907        -0.769832
 H         0.118588        -0.703728        -0.884699
 H         2.653669        -1.969002         0.370982
