19
Iteration:  4101charge 0 multiplicity 1
 C         1.522183         2.437070         1.518943
 C         1.837594         0.948621         1.580493
 C         1.755892         0.145672         2.905246
 C         2.047382        -1.184305         2.236223
 O         0.832521        -1.261887         1.285427
 C         1.498059        -0.233465         0.562936
 C         1.158031         0.089900        -0.917445
 C         2.884171        -0.692452         0.956394
 O         3.280027         0.720805         1.129368
 H         0.436169         2.536898         1.358439
 H         1.729684         2.735094         2.541500
 H         2.161397         2.998173         0.793887
 H         2.559733         0.500965         3.614216
 H         0.756101         0.162581         3.242086
 H         2.524571        -2.077965         2.645241
 H         1.754533        -0.620203        -1.529645
 H         0.164255        -0.085420        -1.262026
 H         1.542593         1.009497        -1.248826
 H         3.702816        -1.193143         0.432745
