19
Iteration:  2319
 C         2.250759         2.425506         1.082348
 C         2.178182         0.888073         1.405352
 C         2.362209         0.368624         2.875049
 C         2.033992        -1.028090         2.319222
 O         0.665501        -0.935768         1.907921
 C         1.189433        -0.137429         0.741019
 C         0.386589         0.022705        -0.542402
 C         2.541981        -0.859974         0.816597
 O         3.281744         0.261995         0.635608
 H         1.323322         2.684537         0.559185
 H         2.252054         2.985429         2.050399
 H         3.045377         2.700180         0.341355
 H         3.372465         0.582621         3.346172
 H         1.622535         0.515922         3.594004
 H         2.244558        -1.959055         2.896893
 H         0.646960        -0.653625        -1.329917
 H        -0.688112        -0.104309        -0.446564
 H         0.507971         1.052995        -0.929591
 H         2.770772        -1.738301         0.197279
