19
Iteration:  3622charge 0 multiplicity 1
 C         1.289678         2.331278         1.424936
 C         1.895999         0.991508         1.634302
 C         1.787231         0.134049         2.928875
 C         2.030128        -1.257050         2.133190
 O         0.890740        -1.248287         1.240939
 C         1.558803        -0.217943         0.528707
 C         1.184856         0.096423        -0.936183
 C         2.979767        -0.595283         0.913929
 O         3.296948         0.739405         1.313078
 H         0.171722         2.252895         1.324704
 H         1.432699         2.923876         2.377958
 H         1.653473         2.968771         0.577213
 H         2.548297         0.311759         3.690003
 H         0.733973         0.067647         3.361303
 H         2.167067        -2.073863         2.883834
 H         0.979359        -0.874535        -1.361546
 H         0.365797         0.825436        -0.828106
 H         1.998680         0.479169        -1.543074
 H         3.812207        -1.091426         0.457780
