19
Iteration:   424
 C         2.589118         2.301078         0.720381
 C         2.345314         0.881488         1.206911
 C         2.818949         0.314064         2.584343
 C         1.941153        -1.006307         2.437682
 O         0.575466        -0.601851         2.270122
 C         1.021069        -0.013624         0.989473
 C         0.179047         0.235562        -0.222033
 C         2.198639        -1.064334         0.866101
 O         3.189846        -0.060031         0.445595
 H         1.511527         2.862881         0.710450
 H         3.508503         2.872630         1.067859
 H         2.738560         2.315989        -0.449559
 H         3.902744         0.075140         2.456691
 H         2.654785         0.964653         3.559738
 H         1.951027        -1.871420         3.139281
 H        -0.645953        -0.418901        -0.556464
 H        -0.347322         1.254741        -0.304628
 H         0.790383         0.181098        -1.065304
 H         2.132404        -1.983962         0.350273
