19
Iteration:   711charge 0 multiplicity 1
 C         2.522566         2.287487         0.825395
 C         2.432949         0.847926         1.162540
 C         2.726325         0.436867         2.619252
 C         1.999759        -0.951764         2.440974
 O         0.579001        -0.438574         2.133207
 C         1.133842        -0.091993         0.866108
 C         0.054486         0.217331        -0.143278
 C         2.174824        -1.123353         0.867690
 O         3.289961        -0.230682         0.415189
 H         2.500721         2.922153         1.690108
 H         3.442561         2.685436         0.311057
 H         1.676389         2.625542         0.208202
 H         3.845444         0.426013         2.867053
 H         2.168291         0.951101         3.336234
 H         1.963307        -1.661266         3.304244
 H        -0.138762        -0.706391        -0.718779
 H        -0.801797         0.420697         0.549531
 H         0.217210         1.070399        -0.917410
 H         2.256428        -2.060794         0.268850
