19
Iteration:  3161charge 0 multiplicity 1
 C         1.284834         2.346106         1.460586
 C         1.965609         0.927250         1.508336
 C         1.915091         0.157424         2.903549
 C         1.948161        -1.193082         2.292733
 O         0.903990        -1.248911         1.316316
 C         1.538834        -0.206849         0.490653
 C         0.921495         0.084016        -0.873599
 C         2.925413        -0.593967         0.989096
 O         3.447361         0.682270         1.137748
 H         0.386690         2.394869         0.903433
 H         1.288826         2.859796         2.442095
 H         2.077710         3.040202         0.996046
 H         2.811191         0.674618         3.474392
 H         1.058163         0.396611         3.516970
 H         2.393001        -2.130134         2.574857
 H         1.326330         1.041275        -1.458775
 H         1.128323        -0.848117        -1.438587
 H        -0.175776         0.096107        -0.765815
 H         3.676181        -1.270485         0.570889
