19
Iteration:  1709charge 0 multiplicity 1
 C         2.485977         2.434756         0.789015
 C         2.404468         0.877307         1.131736
 C         2.637967         0.299204         2.663610
 C         1.962073        -0.974416         2.451032
 O         0.615919        -0.606083         2.129552
 C         1.193144        -0.115827         0.824503
 C         0.054890         0.252391        -0.149181
 C         2.334808        -1.134597         0.902148
 O         3.243295        -0.079790         0.453721
 H         2.475334         3.076139         1.669046
 H         3.362628         2.600957         0.163809
 H         1.563671         2.708960         0.172237
 H         3.686427         0.287183         2.849448
 H         2.031559         0.954151         3.318253
 H         2.137317        -1.813895         3.243121
 H         0.043281         1.365915        -0.311881
 H         0.092294        -0.077521        -1.212392
 H        -0.889068        -0.159943         0.330683
 H         2.440552        -2.199734         0.430805
