19
Iteration:  4179
 C         1.542709         2.418224         1.491084
 C         1.936026         0.934121         1.500601
 C         1.631483         0.133026         2.874566
 C         1.969355        -1.171492         2.159585
 O         0.903408        -1.267288         1.140111
 C         1.563554        -0.232665         0.512530
 C         0.916376         0.005802        -0.865207
 C         3.084525        -0.591091         1.039915
 O         3.393254         0.730934         1.351949
 H         0.753670         2.459228         2.310713
 H         2.386384         3.035211         1.871547
 H         1.145933         2.735109         0.528542
 H         2.168115         0.853944         3.547542
 H         0.555991         0.181407         3.047717
 H         2.025055        -2.079513         2.725558
 H         0.293924        -0.891708        -0.956837
 H         0.316547         0.900565        -0.980509
 H         1.581820         0.156440        -1.763655
 H         3.888339        -1.279127         0.576235
