19
Iteration:  3037
 C         1.528826         2.352649         1.343820
 C         1.954493         0.998949         1.568572
 C         1.973376         0.204936         2.893006
 C         2.060047        -1.102301         2.148413
 O         0.805375        -1.169178         1.378089
 C         1.520336        -0.223391         0.557886
 C         0.815457        -0.031741        -0.723642
 C         2.879074        -0.642337         0.838319
 O         3.412397         0.598234         1.192366
 H         2.430906         3.033399         1.235470
 H         1.005011         2.508859         0.427204
 H         0.813616         2.570712         2.100929
 H         2.663305         0.443572         3.716765
 H         0.908599         0.259254         3.337142
 H         2.132983        -1.956713         2.827150
 H         0.341062        -0.927901        -1.108121
 H         0.011797         0.759171        -0.590601
 H         1.483246         0.491170        -1.547460
 H         3.533876        -1.285864         0.297121
