19
Iteration:  3404
 C         1.523232         2.523784         1.514806
 C         1.812430         0.978114         1.597777
 C         1.595320         0.064259         2.847786
 C         2.117908        -1.246074         2.130148
 O         1.020291        -1.414652         1.122124
 C         1.540068        -0.186580         0.496188
 C         1.041492        -0.026980        -0.930598
 C         2.997655        -0.508560         0.989816
 O         3.262569         0.818275         1.419205
 H         0.895759         2.702664         0.642091
 H         0.941820         2.998098         2.305554
 H         2.486253         2.965827         1.505114
 H         2.078156         0.406820         3.736121
 H         0.476310         0.053990         3.229954
 H         2.254060        -2.092583         2.818769
 H         0.439816        -0.913009        -0.989176
 H         0.294460         0.821431        -1.182281
 H         1.794387        -0.051785        -1.788969
 H         3.863572        -1.082990         0.647786
