19
Iteration:  1387charge 0 multiplicity 1
 C         2.642664         2.312503         0.841846
 C         2.340676         0.860045         1.132784
 C         2.695299         0.455659         2.586147
 C         1.977302        -0.897161         2.426462
 O         0.618031        -0.446805         2.146890
 C         1.108752        -0.200115         0.819698
 C         0.023351         0.205447        -0.084560
 C         2.229734        -1.160444         0.885176
 O         3.244715        -0.144551         0.367927
 H         1.892214         2.837896         1.427745
 H         3.649554         2.575215         1.295064
 H         2.675129         2.654323        -0.154594
 H         3.852919         0.310497         2.872512
 H         2.122158         0.765313         3.500875
 H         2.036407        -1.773462         3.175611
 H        -0.226800        -0.648841        -0.875768
 H        -0.936380         0.231718         0.517392
 H         0.141189         1.205719        -0.623305
 H         2.343473        -2.167146         0.667501
