19
Iteration:  4613
 C         1.179258         2.264386         1.412536
 C         1.933133         0.920860         1.618237
 C         1.794914         0.137091         2.961645
 C         2.088246        -1.186436         2.107315
 O         1.014964        -1.361850         1.150713
 C         1.596606        -0.201437         0.507165
 C         0.878301         0.153304        -0.850389
 C         3.087324        -0.511552         0.947796
 O         3.375196         0.812940         1.359986
 H         0.198359         2.233121         1.968064
 H         1.724007         3.030280         1.943230
 H         1.298529         2.426668         0.364548
 H         2.466385         0.257530         3.810453
 H         0.776961         0.041446         3.353446
 H         2.321427        -2.116371         2.646345
 H         1.010981         1.056500        -1.397645
 H         1.155874        -0.589313        -1.633720
 H        -0.237388         0.040240        -0.691568
 H         3.944223        -1.065976         0.352358
