19
Iteration:  4848
 C         1.219787         2.266436         1.776191
 C         1.823984         0.933908         1.568499
 C         1.819450         0.130571         2.950700
 C         2.270108        -1.122486         2.115263
 O         1.012431        -1.372515         1.142459
 C         1.568562        -0.154568         0.446855
 C         0.959829        -0.121903        -0.995470
 C         2.927881        -0.446917         0.890752
 O         3.304478         0.916239         1.293080
 H         0.160359         2.222557         2.028475
 H         1.716263         2.754152         2.635734
 H         1.366228         2.796932         0.758931
 H         2.632482         0.487494         3.661120
 H         0.805675         0.086802         3.355608
 H         2.563837        -2.068439         2.600526
 H        -0.067908         0.299995        -0.887711
 H         1.525649         0.371983        -1.852665
 H         0.932134        -1.247742        -1.259981
 H         3.808217        -0.773572         0.290745
