19
Iteration:  2115
 C         2.414221         2.399610         0.951203
 C         2.227184         0.903337         1.295677
 C         2.403348         0.415578         2.727995
 C         2.035163        -1.021915         2.368357
 O         0.591518        -0.820475         1.979202
 C         1.220816        -0.168792         0.819342
 C         0.263666         0.066159        -0.270249
 C         2.447273        -0.946982         0.795306
 O         3.301410         0.173263         0.561869
 H         1.903980         2.990058         1.757523
 H         3.542599         2.568011         0.778030
 H         1.930877         2.794819         0.057795
 H         3.530597         0.456357         2.935370
 H         1.684757         0.684392         3.508028
 H         2.173464        -1.970356         2.904409
 H         0.054975        -0.799474        -0.917838
 H        -0.704478         0.249827         0.192217
 H         0.500496         0.914690        -1.011614
 H         2.526273        -1.857234         0.228165
