19
Iteration:  3533
 C         1.517979         2.489478         1.456865
 C         1.826502         1.026011         1.590840
 C         1.619307         0.104406         2.843150
 C         2.016921        -1.269653         2.177094
 O         0.999289        -1.444349         1.174462
 C         1.565445        -0.233351         0.509275
 C         1.134048         0.083785        -0.894520
 C         2.955765        -0.568694         1.011055
 O         3.231915         0.818242         1.344689
 H         0.635243         2.686835         2.140334
 H         2.367441         3.048154         1.962485
 H         1.319709         2.744259         0.413945
 H         2.429215         0.437627         3.441683
 H         0.616882         0.017210         3.427117
 H         2.231588        -2.179574         2.720001
 H         1.684928        -0.471115        -1.619601
 H         0.089758        -0.257804        -1.120513
 H         1.219227         1.127936        -1.272037
 H         3.656882        -1.278542         0.613584
