19
Iteration:   172
 C         2.623528         2.257569         0.730939
 C         2.450966         0.847887         1.086816
 C         2.603149         0.426703         2.640613
 C         2.075000        -0.983876         2.408696
 O         0.640522        -0.605296         2.252750
 C         1.057626        -0.074439         0.956527
 C         0.056257         0.334682        -0.082260
 C         2.181340        -1.072026         0.773270
 O         3.219269        -0.175035         0.433610
 H         1.995145         2.824598         1.444238
 H         3.656858         2.543558         0.773521
 H         2.214002         2.512283        -0.281648
 H         3.700984         0.629762         2.935657
 H         1.826178         0.935104         3.216934
 H         2.163920        -1.808139         3.065459
 H        -0.869378        -0.287217        -0.233265
 H        -0.230265         1.537131         0.023525
 H         0.611975         0.187534        -1.061959
 H         2.168798        -1.997030         0.305228
