19
Iteration:   848
 C         2.564617         2.251917         0.644323
 C         2.471915         0.860985         1.226592
 C         2.678612         0.359839         2.710125
 C         2.055606        -1.007019         2.385563
 O         0.648562        -0.530252         2.201810
 C         1.060704        -0.005683         0.877110
 C         0.027589         0.302082        -0.091586
 C         2.234879        -1.071556         0.805128
 O         3.192351        -0.154833         0.457896
 H         1.446874         2.522508         0.433449
 H         3.067550         2.987181         1.198344
 H         3.004251         2.026938        -0.335351
 H         3.635859         0.316952         3.068285
 H         2.018965         0.935055         3.417076
 H         2.245619        -1.801411         3.058952
 H        -0.831891        -0.264780         0.065437
 H        -0.220469         1.401916        -0.008149
 H         0.406552        -0.003490        -1.018621
 H         2.215753        -2.007787         0.223084
