19
Iteration:  1672charge 0 multiplicity 1
 C         2.590156         2.323655         0.811123
 C         2.327316         0.862779         1.187084
 C         2.666558         0.421543         2.601804
 C         2.092336        -0.985498         2.414509
 O         0.638097        -0.608041         2.171460
 C         1.065313        -0.102324         0.887082
 C         0.141355         0.181431        -0.179312
 C         2.185295        -1.086261         0.791927
 O         3.159655        -0.053349         0.500018
 H         2.087068         3.088525         1.535058
 H         3.731301         2.484034         0.819102
 H         2.317070         2.586661        -0.239279
 H         3.753457         0.461613         2.872702
 H         2.037595         0.965314         3.395568
 H         2.136407        -1.697448         3.163737
 H        -0.433341         1.095644         0.180489
 H         0.677079         0.294614        -1.185806
 H        -0.557886        -0.678321        -0.300807
 H         2.230404        -1.967087         0.187751
