19
Iteration:  3758charge 0 multiplicity 1
 C         1.592942         2.479901         1.730645
 C         1.783024         1.006220         1.539549
 C         1.694863         0.175423         2.825186
 C         2.003967        -1.180297         2.132498
 O         0.933765        -1.372451         1.165598
 C         1.559694        -0.323139         0.466363
 C         1.160838        -0.082995        -0.961131
 C         2.898248        -0.509687         1.031920
 O         3.231570         0.802843         1.258209
 H         0.674437         2.679816         2.280540
 H         2.512063         2.849625         2.204083
 H         1.571608         3.011806         0.816418
 H         2.307862         0.537235         3.607043
 H         0.690783         0.048823         3.279289
 H         2.396782        -1.961756         2.738416
 H         1.218731        -1.079849        -1.437144
 H         0.089485         0.236063        -0.949002
 H         1.613787         0.697454        -1.629650
 H         3.534435        -1.247964         0.461163
