19
Iteration:  3352
 C         1.232534         2.336981         1.445691
 C         1.861669         0.935921         1.559295
 C         1.709371         0.115713         2.855188
 C         2.032281        -1.208132         2.137468
 O         0.972089        -1.287140         1.248517
 C         1.596993        -0.173277         0.537905
 C         1.140387         0.120402        -0.851403
 C         2.956989        -0.646897         0.995222
 O         3.426832         0.775600         1.285623
 H         1.361353         2.871464         0.486256
 H         0.169911         2.132591         1.434182
 H         1.468273         2.940545         2.324937
 H         2.206263         0.600492         3.693859
 H         0.683902         0.083904         3.217098
 H         2.274595        -2.083115         2.778105
 H         0.336236        -0.496867        -1.173606
 H         0.730463         1.105969        -1.035627
 H         2.003370        -0.003692        -1.506049
 H         3.614324        -1.292309         0.421431
