19
Iteration:  3436
 C         1.478958         2.430196         1.524237
 C         1.812848         0.954688         1.609689
 C         1.612132         0.094541         2.876410
 C         2.073088        -1.232137         2.157780
 O         0.957319        -1.439925         1.233005
 C         1.466904        -0.253489         0.486459
 C         1.163348         0.084588        -0.955281
 C         2.984932        -0.545736         0.952647
 O         3.307369         0.855881         1.326708
 H         0.665321         2.615101         0.799146
 H         1.186759         2.801284         2.524762
 H         2.327686         3.007958         1.195418
 H         2.173795         0.556661         3.623681
 H         0.478459         0.159328         3.079736
 H         2.313806        -2.105089         2.770452
 H         0.961648        -0.886258        -1.365491
 H         0.216624         0.709773        -1.104960
 H         2.014465         0.524962        -1.551073
 H         3.902211        -0.992769         0.589754
