19
Iteration:  4517charge 0 multiplicity 1
 C         1.378691         2.388361         1.591700
 C         1.856386         1.007238         1.598918
 C         1.725844         0.039058         2.830534
 C         2.136421        -1.141423         2.073883
 O         0.995571        -1.324196         1.200458
 C         1.549617        -0.166324         0.489774
 C         0.941867        -0.117587        -0.899399
 C         3.001546        -0.540221         0.946569
 O         3.340678         0.841882         1.364686
 H         0.274352         2.425328         1.704019
 H         1.734907         2.892412         2.528653
 H         1.771753         2.874501         0.710560
 H         2.353009         0.482566         3.596848
 H         0.636852         0.089323         3.193893
 H         2.312453        -2.081193         2.568630
 H        -0.176504        -0.132019        -0.853052
 H         1.206765         0.880094        -1.368220
 H         1.271187        -1.002906        -1.556091
 H         3.742004        -0.894692         0.187852
