19
Iteration:  1434
 C         2.585361         2.348206         0.602016
 C         2.450459         0.900246         1.240762
 C         2.673812         0.385819         2.725820
 C         2.017590        -1.014570         2.348461
 O         0.545458        -0.606158         2.197254
 C         1.107047        -0.073169         0.927682
 C         0.155319         0.240007        -0.119438
 C         2.219656        -1.073806         0.889290
 O         3.198371        -0.140984         0.446246
 H         2.455812         3.254216         1.229771
 H         3.550802         2.381046         0.090066
 H         1.932079         2.426848        -0.281450
 H         3.696396         0.384384         3.110686
 H         1.839417         0.963700         3.413594
 H         2.208863        -1.902986         2.954347
 H        -0.258415        -0.395162        -0.941077
 H        -0.838509         0.561806         0.382642
 H         0.394976         1.197222        -0.584361
 H         2.174501        -2.037095         0.302294
