19
Iteration:  3028charge 0 multiplicity 1
 C         1.500806         2.443603         1.298149
 C         1.920557         0.978791         1.528524
 C         1.991343         0.168322         2.894004
 C         2.016709        -1.176515         2.195033
 O         0.806231        -1.173287         1.422505
 C         1.473693        -0.201934         0.528855
 C         0.840398         0.018896        -0.742020
 C         2.899906        -0.708301         0.903075
 O         3.430683         0.633583         1.149969
 H         2.325316         3.154105         1.629643
 H         1.144441         2.565419         0.279013
 H         0.796076         2.769912         2.107443
 H         2.925273         0.368911         3.572966
 H         1.002362         0.277922         3.378667
 H         2.245683        -2.141269         2.632875
 H         0.678582        -0.993338        -1.203272
 H        -0.122296         0.488977        -0.431458
 H         1.505085         0.659722        -1.424065
 H         3.570995        -1.346595         0.369052
