19
Iteration:   284
 C         2.683246         2.310746         0.788607
 C         2.440551         0.853173         1.176689
 C         2.755135         0.413742         2.558050
 C         1.965519        -0.891920         2.498085
 O         0.577530        -0.618317         2.195102
 C         1.055294        -0.110966         0.890918
 C         0.041266         0.270321        -0.214024
 C         2.247999        -1.106595         0.949602
 O         3.120100        -0.124257         0.356751
 H         1.930722         2.776039         1.382706
 H         3.723483         2.484638         0.884412
 H         2.422816         2.704008        -0.183961
 H         3.788908         0.063024         2.611914
 H         2.576388         1.154500         3.433914
 H         2.045418        -1.671577         3.307959
 H        -0.291287        -0.568227        -0.865531
 H        -0.879206         0.703995         0.437936
 H         0.553345         0.941129        -0.846318
 H         2.259794        -2.133105         0.571008
