19
Iteration:  4089charge 0 multiplicity 1
 C         1.490166         2.457205         1.650617
 C         1.962619         0.988409         1.515223
 C         1.748288         0.169769         2.849254
 C         2.038611        -1.157991         2.163473
 O         0.855465        -1.259662         1.286338
 C         1.500022        -0.221371         0.509136
 C         1.155510        -0.050798        -0.924657
 C         2.888234        -0.633328         0.917536
 O         3.302623         0.694957         1.198249
 H         0.471315         2.614447         1.254529
 H         1.441697         2.839940         2.661552
 H         2.073441         3.292292         1.126604
 H         2.451318         0.486483         3.674812
 H         0.783638         0.254198         3.298321
 H         2.101992        -2.049131         2.854597
 H         1.646829        -0.891947        -1.416764
 H         0.082186        -0.147516        -1.022887
 H         1.424221         0.863617        -1.280720
 H         3.177426        -1.407738         0.262628
