19
Iteration:   626charge 0 multiplicity 1
 C         2.587760         2.347710         0.676470
 C         2.503259         0.863475         1.235156
 C         2.662129         0.376526         2.651575
 C         2.061388        -1.012473         2.360115
 O         0.607329        -0.557308         2.210712
 C         1.031159        -0.045687         0.912770
 C         0.030293         0.263771        -0.137101
 C         2.153044        -1.051676         0.792111
 O         3.230860        -0.149521         0.499065
 H         1.628885         2.623533         0.909779
 H         3.411110         2.958452         1.122223
 H         2.776457         2.260022        -0.400452
 H         3.641324         0.238133         3.024414
 H         2.134423         0.949752         3.352267
 H         2.369170        -1.881362         3.080631
 H        -0.800548        -0.436632         0.027606
 H        -0.299488         1.201916        -0.163547
 H         0.613266         0.026697        -1.060667
 H         2.330931        -2.090965         0.203824
