19
Iteration:  3290
 C         1.395423         2.431507         1.566053
 C         1.887791         0.975758         1.564438
 C         1.735014         0.158881         2.836485
 C         2.072601        -1.203427         2.160078
 O         0.896494        -1.403346         1.231847
 C         1.511779        -0.252838         0.496247
 C         1.074383         0.013525        -0.880042
 C         2.993851        -0.536576         0.957717
 O         3.333382         0.814423         1.274441
 H         2.140888         3.231919         1.699706
 H         1.006561         2.583823         0.519042
 H         0.413061         2.453892         2.152408
 H         2.518300         0.540528         3.635088
 H         0.723409         0.146705         3.148053
 H         2.304108        -2.037095         2.862950
 H         0.714131        -1.010733        -1.268355
 H         0.366347         0.828004        -0.941285
 H         1.948398         0.271753        -1.469135
 H         3.721204        -1.186005         0.486721
