19
Iteration:   397
 C         2.520323         2.273704         0.816281
 C         2.412228         0.819294         1.208238
 C         2.610173         0.431730         2.696835
 C         2.070409        -0.932148         2.398353
 O         0.662613        -0.512126         2.217457
 C         1.105725        -0.064086         0.949868
 C         0.235045         0.308131        -0.147304
 C         2.186310        -1.112351         0.802405
 O         3.128188        -0.217562         0.306640
 H         1.666402         2.702550         1.039772
 H         3.372069         2.849819         1.079455
 H         2.532142         2.363129        -0.217376
 H         3.611545         0.412916         3.113913
 H         2.017403         1.015836         3.284938
 H         2.205983        -1.808598         3.028945
 H        -0.712242        -0.216534        -0.111648
 H        -0.097838         1.293393        -0.217371
 H         0.546683         0.010255        -1.209298
 H         2.090765        -2.203364         0.468753
