19
Iteration:  1033
 C         2.528277         2.316270         0.768941
 C         2.425696         0.886122         1.156573
 C         2.792591         0.272279         2.607561
 C         1.960687        -0.947647         2.363597
 O         0.545910        -0.550238         2.175771
 C         1.146957        -0.000948         0.841129
 C         0.073089         0.181548        -0.141791
 C         2.207970        -1.030754         0.900041
 O         3.244335        -0.109773         0.524867
 H         2.327389         3.050172         1.611726
 H         3.456347         2.657775         0.353901
 H         1.851946         2.524912        -0.131565
 H         3.836768         0.045669         2.547910
 H         2.572384         0.834196         3.665108
 H         2.077325        -1.838631         3.138591
 H        -0.852939        -0.330743         0.130411
 H        -0.273611         1.265179        -0.288612
 H         0.265318        -0.304819        -1.134933
 H         2.039766        -2.025421         0.289548
