19
Iteration:  4225charge 0 multiplicity 1
 C         1.577798         2.462819         1.611791
 C         1.861161         1.057429         1.638081
 C         1.729600         0.207443         2.917228
 C         2.109490        -1.282703         2.115207
 O         0.854174        -1.344567         1.248622
 C         1.445618        -0.253412         0.515063
 C         1.133876        -0.078921        -0.974754
 C         2.856035        -0.527081         0.959160
 O         3.243961         0.785958         1.189229
 H         0.538147         2.732075         1.816375
 H         2.241001         2.975737         2.354587
 H         1.911463         2.730083         0.640174
 H         2.475291         0.187389         3.674674
 H         0.657925         0.066694         3.296255
 H         2.325968        -2.005004         2.841119
 H         0.240104        -0.483106        -1.450527
 H         1.414905         0.955931        -1.289538
 H         2.082599        -0.587140        -1.379604
 H         3.550887        -1.216105         0.445153
