19
Iteration:  2444charge 0 multiplicity 1
 C         2.199041         2.479102         1.195369
 C         2.096689         0.908546         1.386640
 C         2.191395         0.330311         2.822549
 C         2.020296        -1.094231         2.283666
 O         0.650023        -1.035604         1.808513
 C         1.335851        -0.143578         0.663384
 C         0.428598        -0.032217        -0.485229
 C         2.638566        -0.855494         0.813676
 O         3.338890         0.432685         0.715375
 H         2.923808         2.876514         1.965095
 H         2.597089         2.634330         0.208015
 H         1.179370         2.855589         1.307844
 H         3.184250         0.596300         3.159093
 H         1.378820         0.731790         3.520035
 H         2.264861        -2.018963         2.840395
 H        -0.005285         1.042833        -0.607167
 H         0.874509        -0.446462        -1.472948
 H        -0.532261        -0.584195        -0.318630
 H         2.961096        -1.709636         0.193384
