19
Iteration:  2124charge 0 multiplicity 1
 C         2.406493         2.391778         0.999469
 C         2.247432         0.968513         1.257508
 C         2.420929         0.368196         2.740597
 C         2.032947        -0.989936         2.269549
 O         0.649109        -0.795564         2.008461
 C         1.126890        -0.166168         0.767313
 C         0.172016         0.036361        -0.339650
 C         2.440126        -0.997623         0.829118
 O         3.340664         0.172954         0.628583
 H         2.201825         2.932730         1.887777
 H         3.433486         2.673008         0.748497
 H         1.748726         2.573797         0.168545
 H         3.549133         0.485539         3.018288
 H         1.874763         0.726011         3.559856
 H         2.219471        -1.778602         2.992913
 H        -0.051149        -0.925987        -0.817224
 H        -0.759325         0.524728        -0.008251
 H         0.617505         0.790146        -1.086493
 H         2.736049        -1.933334         0.395736
