19
Iteration:  4249
 C         1.471450         2.424177         1.592053
 C         1.827448         0.989860         1.469686
 C         1.767644         0.169170         2.931093
 C         2.029404        -1.222724         2.177051
 O         0.840011        -1.272948         1.268509
 C         1.589854        -0.195566         0.487882
 C         1.123706        -0.006579        -0.901958
 C         2.942815        -0.597134         0.932867
 O         3.305812         0.745177         1.231122
 H         0.424497         2.327615         1.532679
 H         1.676032         2.956783         2.508004
 H         1.811948         2.968505         0.718381
 H         2.592813         0.294756         3.577543
 H         0.774042        -0.000210         3.386310
 H         2.220496        -2.170590         2.764161
 H         0.011186         0.062022        -0.912224
 H         1.681009         0.832433        -1.429368
 H         1.462212        -0.924741        -1.386059
 H         3.565429        -1.189120         0.318026
