19
Iteration:   217charge 0 multiplicity 1
 C         2.565034         2.195181         0.678716
 C         2.440091         0.842930         1.221918
 C         2.770251         0.393379         2.655080
 C         2.002049        -0.953735         2.465678
 O         0.537655        -0.610693         2.183364
 C         1.046324        -0.071313         0.975523
 C         0.055840         0.349112        -0.158533
 C         2.271475        -1.070481         0.807051
 O         3.211921        -0.100226         0.389574
 H         1.640238         2.665630         1.072677
 H         3.475142         2.667000         1.058494
 H         2.488333         2.430424        -0.397773
 H         3.860484         0.041000         2.691654
 H         2.320889         1.014546         3.500892
 H         2.217508        -1.663793         3.299009
 H        -0.911948        -0.236045         0.030267
 H        -0.129550         1.571647         0.083218
 H         0.474452         0.017430        -1.086351
 H         2.322441        -1.919245         0.176997
