19
Iteration:  1492charge 0 multiplicity 1
 C         2.592371         2.403648         0.851211
 C         2.476310         0.837618         1.082299
 C         2.694081         0.428879         2.552026
 C         2.004226        -0.914527         2.424239
 O         0.551132        -0.574844         2.113222
 C         1.076598        -0.098156         0.906969
 C         0.025810         0.200380        -0.107248
 C         2.277983        -1.155031         0.903132
 O         3.224106        -0.158458         0.433343
 H         2.123224         2.921938         1.692110
 H         3.599261         2.867545         0.771073
 H         1.907916         2.688414        -0.045582
 H         3.706335         0.313165         2.984160
 H         2.059974         0.850747         3.371624
 H         2.073623        -1.670078         3.221757
 H        -0.841668        -0.417864        -0.061053
 H        -0.102556         1.276998         0.062389
 H         0.493810         0.093708        -1.138552
 H         2.374656        -2.192058         0.380690
