19
Iteration:  4720charge 0 multiplicity 1
 C         1.163126         2.302510         1.692576
 C         1.889780         0.988546         1.612533
 C         1.910742         0.080368         2.898085
 C         2.158385        -1.126585         2.057007
 O         0.947509        -1.280338         1.254048
 C         1.567118        -0.171460         0.511580
 C         1.037675        -0.111973        -0.980342
 C         2.909472        -0.502282         0.846271
 O         3.320849         0.865678         1.293905
 H         0.112460         1.957004         1.446490
 H         1.352751         2.603259         2.713848
 H         1.413838         3.106160         0.961163
 H         2.710583         0.490699         3.545987
 H         0.983370        -0.144063         3.424072
 H         2.570402        -2.050646         2.460886
 H         1.361075        -0.951293        -1.523939
 H        -0.059522        -0.036947        -0.993840
 H         1.437081         0.751320        -1.558418
 H         3.775131        -1.147109         0.441476
