19
Iteration:   394
 C         2.533613         2.232579         0.832353
 C         2.414943         0.804942         1.203925
 C         2.612235         0.455422         2.689145
 C         2.065976        -0.921787         2.406443
 O         0.673466        -0.509481         2.210677
 C         1.103627        -0.072183         0.933020
 C         0.185140         0.308241        -0.149841
 C         2.208617        -1.115497         0.802246
 O         3.150325        -0.229099         0.298283
 H         1.588398         2.801682         1.238051
 H         3.304048         2.926404         1.112730
 H         2.491254         2.317323        -0.261787
 H         3.599880         0.485529         3.122085
 H         1.940153         1.055010         3.352830
 H         2.103129        -1.751831         3.033132
 H        -0.754906        -0.207686        -0.108127
 H        -0.066923         1.470184        -0.198498
 H         0.569820         0.059475        -1.163597
 H         2.125794        -2.207580         0.461540
