19
Iteration:   177
 C         2.618599         2.287031         0.702484
 C         2.391229         0.860558         1.102546
 C         2.605523         0.436390         2.629206
 C         2.103741        -0.994246         2.393278
 O         0.612841        -0.621363         2.259854
 C         1.048359        -0.079649         0.965018
 C         0.096065         0.359430        -0.081670
 C         2.219504        -1.069310         0.806499
 O         3.198454        -0.202028         0.413477
 H         2.085128         2.900384         1.452301
 H         3.735374         2.583745         0.860112
 H         2.344657         2.471564        -0.337839
 H         3.582001         0.669445         2.906715
 H         1.836424         0.814009         3.412145
 H         2.212801        -1.842613         3.165667
 H        -0.847393        -0.160114        -0.173784
 H        -0.093931         1.370026        -0.062117
 H         0.533102         0.262110        -1.049403
 H         2.200966        -2.066550         0.187823
