19
Iteration:  4633
 C         1.350462         2.294582         1.363017
 C         1.854782         0.945786         1.646368
 C         1.714721         0.005520         2.814513
 C         2.160960        -1.217318         2.126273
 O         1.067087        -1.327094         1.141360
 C         1.601985        -0.177752         0.521489
 C         0.858003         0.067798        -0.736803
 C         3.054061        -0.467533         0.985321
 O         3.271163         0.874165         1.375899
 H         0.200584         2.344042         1.546596
 H         1.679744         3.020252         2.121044
 H         1.655474         2.635496         0.311635
 H         2.533220         0.358230         3.500022
 H         0.778557        -0.197216         3.297554
 H         2.483762        -2.248741         2.324919
 H         1.382188         0.730322        -1.360441
 H         0.590787        -0.824926        -1.292935
 H        -0.087497         0.572074        -0.400094
 H         3.823348        -1.107861         0.373909
