19
Iteration:  4979
 C         1.390899         2.458656         1.728696
 C         1.799107         0.973128         1.618513
 C         1.735225         0.101028         2.812520
 C         2.257871        -1.179424         2.091465
 O         1.127842        -1.476124         1.130396
 C         1.488696        -0.300138         0.502788
 C         0.806338        -0.051185        -0.920221
 C         3.010667        -0.456872         0.954329
 O         3.268005         0.882773         1.306836
 H         0.394076         2.802310         2.110442
 H         2.195487         3.035699         2.193682
 H         1.210575         2.946886         0.669291
 H         2.440438         0.503329         3.550276
 H         0.702286        -0.015278         3.234850
 H         2.644030        -1.969739         2.666391
 H        -0.146991        -0.529733        -1.038417
 H         0.668260         1.057274        -1.118337
 H         1.402717        -0.508220        -1.787748
 H         3.880190        -0.933297         0.402840
