19
Iteration:  3541charge 0 multiplicity 1
 C         1.582616         2.481059         1.576286
 C         1.828682         1.004419         1.507330
 C         1.595495         0.106968         2.881793
 C         2.012759        -1.232761         2.132469
 O         0.994765        -1.511209         1.178023
 C         1.594691        -0.181130         0.471503
 C         1.097631         0.050336        -0.941071
 C         2.928422        -0.565047         1.052081
 O         3.217857         0.826804         1.334154
 H         0.607031         2.717902         2.029720
 H         2.460607         3.172283         1.769586
 H         1.378766         2.783059         0.512676
 H         2.222834         0.487915         3.775514
 H         0.536316         0.201973         3.265894
 H         2.502219        -1.969052         2.777676
 H         1.635352        -0.696553        -1.556267
 H         0.041486        -0.257077        -0.987982
 H         1.303619         1.114249        -1.163113
 H         3.806017        -1.133999         0.553281
