19
Iteration:  3220charge 0 multiplicity 1
 C         1.505469         2.461509         1.409253
 C         1.846495         1.012001         1.660197
 C         1.744193         0.095948         2.946449
 C         2.079682        -1.141498         2.219653
 O         0.990938        -1.391963         1.243032
 C         1.519863        -0.287199         0.514352
 C         0.948318         0.048005        -0.916190
 C         2.926194        -0.587993         0.942913
 O         3.311599         0.782678         1.227612
 H         0.916299         2.966233         2.230108
 H         2.419929         3.099069         1.301289
 H         0.973615         2.430879         0.472536
 H         2.464773         0.513323         3.548383
 H         0.746522        -0.111338         3.469302
 H         2.335519        -2.081779         2.783625
 H         1.599177        -0.221897        -1.663993
 H         0.028885        -0.550190        -1.035435
 H         0.643457         1.087797        -1.098001
 H         3.773931        -1.152243         0.481684
