19
Iteration:  1052charge 0 multiplicity 1
 C         2.518027         2.322732         0.794960
 C         2.450600         0.893619         1.267542
 C         2.746825         0.277791         2.668555
 C         1.933662        -1.013220         2.444694
 O         0.633278        -0.380908         2.165405
 C         1.101649        -0.027202         0.896291
 C         0.013604         0.137709        -0.172598
 C         2.261398        -1.104268         0.762389
 O         3.246134        -0.119282         0.376410
 H         2.061185         3.034389         1.487470
 H         3.532281         2.625066         0.791630
 H         2.012731         2.466681        -0.146951
 H         3.804480         0.215914         2.840249
 H         2.276758         0.895718         3.549358
 H         1.858265        -1.877302         3.084296
 H        -0.903878        -0.439521         0.195734
 H        -0.236957         1.188679        -0.299999
 H         0.394016        -0.345415        -1.018157
 H         2.391265        -2.162232         0.244057
