19
Iteration:  3438charge 0 multiplicity 1
 C         1.465633         2.428856         1.528173
 C         1.816632         0.947676         1.608809
 C         1.637671         0.090038         2.858007
 C         2.054010        -1.224235         2.180000
 O         0.958616        -1.434091         1.230851
 C         1.481690        -0.250412         0.482056
 C         1.157475         0.100150        -0.958654
 C         2.980508        -0.554223         0.956427
 O         3.305967         0.854158         1.326268
 H         0.656275         2.629920         0.830457
 H         1.164631         2.748320         2.495107
 H         2.280322         3.016647         1.151095
 H         2.199810         0.619973         3.605326
 H         0.540085         0.127679         3.056000
 H         2.279221        -2.148012         2.751923
 H         0.999665        -0.907558        -1.360614
 H         0.196228         0.666925        -1.110969
 H         2.028063         0.540072        -1.493890
 H         3.881359        -1.030232         0.643914
