19
Iteration:  2345
 C         2.085856         2.526061         1.098799
 C         2.216869         0.924579         1.316918
 C         2.396061         0.345450         2.691658
 C         2.044870        -1.089232         2.320893
 O         0.629755        -0.940619         1.827984
 C         1.223612        -0.172208         0.764098
 C         0.420785         0.075849        -0.429629
 C         2.518420        -0.937407         0.867709
 O         3.367050         0.253330         0.751798
 H         1.045742         2.947952         1.171216
 H         2.745124         3.008693         1.798169
 H         2.325026         2.681917         0.078343
 H         3.342370         0.399316         3.139148
 H         1.609884         0.553040         3.520082
 H         2.231176        -1.886073         3.017438
 H         0.115732        -0.881378        -0.969163
 H        -0.513988         0.683642        -0.403470
 H         1.143941         0.662489        -1.106757
 H         2.703179        -1.813330         0.254001
