19
Iteration:  4411charge 0 multiplicity 1
 C         1.289446         2.406340         1.611591
 C         1.833255         1.037183         1.581090
 C         1.855027         0.177321         2.851776
 C         2.108195        -1.198033         2.133193
 O         0.901749        -1.332569         1.230205
 C         1.531681        -0.196269         0.483859
 C         1.138684        -0.037779        -0.899877
 C         2.907574        -0.603146         0.933524
 O         3.318511         0.790558         1.269041
 H         0.302845         2.118832         1.977508
 H         2.024859         2.856007         2.369930
 H         1.296570         3.107272         0.726363
 H         2.709781         0.438280         3.481347
 H         0.913398        -0.012593         3.505041
 H         2.247219        -2.189953         2.626682
 H         1.828943        -0.528052        -1.617714
 H         0.136241        -0.460425        -1.085593
 H         0.982018         0.893768        -1.388528
 H         3.650313        -1.130536         0.411286
