19
Iteration:  2126charge 0 multiplicity 1
 C         2.391992         2.389845         1.006487
 C         2.264074         0.974885         1.260228
 C         2.438799         0.361395         2.735774
 C         2.034123        -0.992453         2.267676
 O         0.657510        -0.789685         2.006140
 C         1.100198        -0.158575         0.756407
 C         0.143066         0.033135        -0.360796
 C         2.448339        -1.009092         0.832765
 O         3.342007         0.166153         0.642072
 H         2.245426         2.993847         1.943435
 H         3.466554         2.688254         0.732642
 H         1.711668         2.585585         0.193249
 H         3.526189         0.507163         3.049557
 H         1.873712         0.789297         3.594410
 H         2.249717        -1.764019         3.024113
 H        -0.063061        -0.953381        -0.800595
 H        -0.738820         0.569493        -0.024444
 H         0.666433         0.742221        -1.114467
 H         2.790726        -1.933002         0.386685
