19
Iteration:  2824
 C         1.721623         2.332616         1.318333
 C         2.098633         0.983927         1.559636
 C         2.099383         0.244840         2.837350
 C         2.077763        -1.096653         2.238315
 O         0.697205        -1.098626         1.537758
 C         1.331481        -0.155605         0.623015
 C         0.721437        -0.018583        -0.756898
 C         2.748206        -0.745244         0.862234
 O         3.415297         0.575777         0.976357
 H         2.098391         2.698473         0.386757
 H         0.708543         2.518297         1.600114
 H         2.421323         2.937768         1.949111
 H         3.008586         0.434640         3.505523
 H         1.241483         0.449769         3.427494
 H         2.345626        -1.991587         2.826202
 H        -0.121526        -0.784278        -0.473578
 H         0.027448         0.829603        -0.935249
 H         1.334375        -0.244866        -1.625577
 H         3.133765        -1.578938         0.266433
