19
Iteration:  3737charge 0 multiplicity 1
 C         1.587571         2.607200         1.713299
 C         1.892007         1.030431         1.605757
 C         1.617156         0.104124         2.861342
 C         1.993506        -1.194947         2.113131
 O         0.987050        -1.351751         1.116982
 C         1.497283        -0.180234         0.442999
 C         0.978406        -0.264877        -0.988586
 C         2.987661        -0.567850         0.903310
 O         3.284724         0.802102         1.383384
 H         0.651752         2.856098         2.225004
 H         2.480498         3.078699         2.184348
 H         1.558328         3.008346         0.749056
 H         2.266302         0.332165         3.667571
 H         0.571715         0.100845         3.313132
 H         2.274162        -1.977425         2.788057
 H         1.364226        -1.190224        -1.413842
 H        -0.041875         0.121601        -1.222276
 H         1.511790         0.607129        -1.528861
 H         3.951601        -1.106542         0.749482
