19
Iteration:  1358charge 0 multiplicity 1
 C         2.619947         2.278878         0.779788
 C         2.491085         0.876985         1.196238
 C         2.772383         0.440301         2.572879
 C         1.975228        -0.967283         2.408995
 O         0.585306        -0.594853         2.238944
 C         1.079668         0.015244         0.937799
 C         0.045216         0.199534        -0.159025
 C         2.134886        -1.041226         0.832713
 O         3.242411        -0.166580         0.392942
 H         1.614079         2.777552         0.864603
 H         3.247260         2.852711         1.479108
 H         2.870278         2.392395        -0.283180
 H         3.734370         0.430674         2.937641
 H         2.045220         0.877389         3.341468
 H         2.141745        -1.789162         3.153739
 H        -0.062846        -0.732188        -0.690167
 H        -0.962960         0.413323         0.254430
 H         0.226088         0.801329        -1.004132
 H         2.053463        -2.032045         0.346027
