19
Iteration:  2080charge 0 multiplicity 1
 C         2.351205         2.346117         0.877405
 C         2.342926         0.924863         1.310676
 C         2.415548         0.404256         2.759364
 C         2.084021        -0.991937         2.376680
 O         0.634702        -0.890538         2.035932
 C         1.108112        -0.207573         0.771940
 C         0.184938         0.266845        -0.357732
 C         2.446811        -0.973355         0.867042
 O         3.310048         0.088660         0.556011
 H         1.390306         2.707015         1.126718
 H         2.911059         3.038076         1.540038
 H         2.608484         2.529034        -0.170327
 H         3.535458         0.497827         3.086615
 H         1.869682         0.871713         3.496616
 H         2.483576        -1.872485         2.842545
 H         0.499110        -0.219598        -1.282983
 H        -0.797876        -0.036410         0.029597
 H         0.204353         1.393313        -0.366306
 H         2.547570        -1.878702         0.302208
