19
Iteration:  1367charge 0 multiplicity 1
 C         2.609873         2.397383         0.811967
 C         2.495890         0.845873         1.147732
 C         2.690532         0.401125         2.591345
 C         2.001019        -0.976556         2.446911
 O         0.613138        -0.544371         2.214611
 C         1.103933         0.002925         0.914728
 C        -0.000577         0.174396        -0.177369
 C         2.220693        -1.092509         0.834215
 O         3.188358        -0.224828         0.384468
 H         1.623200         2.827259         1.046675
 H         3.484341         2.886523         1.329188
 H         2.970003         2.492312        -0.162807
 H         3.795269         0.476561         2.898855
 H         2.024456         1.115590         3.320961
 H         2.017986        -1.781162         3.303511
 H        -0.078173        -0.876593        -0.647373
 H        -1.010028         0.402639         0.323682
 H         0.278069         1.099020        -0.704477
 H         2.182651        -1.933546         0.210399
