19
Iteration:   148charge 0 multiplicity 1
 C         2.569992         2.255500         0.790892
 C         2.477662         0.871759         1.184937
 C         2.771436         0.365156         2.676843
 C         1.980230        -0.929187         2.422326
 O         0.548967        -0.487107         2.118136
 C         1.143065        -0.027658         0.870910
 C        -0.022649         0.241455        -0.085890
 C         2.257192        -1.091446         0.856115
 O         3.234464        -0.184131         0.385858
 H         2.071476         2.908755         1.484373
 H         3.569815         2.498148         0.623854
 H         2.042832         2.360825        -0.151133
 H         3.875385         0.226248         2.699175
 H         2.330498         0.843562         3.491611
 H         1.921334        -1.672640         3.175573
 H        -0.592138        -0.694961        -0.192925
 H        -0.718141         1.025023         0.384597
 H         0.163983         0.529179        -1.204572
 H         2.247373        -2.071457         0.370427
