19
Iteration:  1395charge 0 multiplicity 1
 C         2.609925         2.209728         0.862830
 C         2.374057         0.825479         1.143244
 C         2.724292         0.449384         2.570624
 C         1.980352        -0.874280         2.393902
 O         0.565299        -0.491456         2.151283
 C         1.092803        -0.131103         0.825577
 C        -0.017874         0.212454        -0.127656
 C         2.288442        -1.121707         0.914134
 O         3.243245        -0.115561         0.414698
 H         2.015586         2.829921         1.538341
 H         3.681705         2.288271         1.078995
 H         2.565149         2.507132        -0.245173
 H         3.857528         0.540892         2.673223
 H         2.271238         0.980306         3.331081
 H         1.996795        -1.607123         3.156827
 H        -0.158902        -0.608807        -0.816734
 H        -0.819445         0.291614         0.548736
 H         0.180438         1.249079        -0.448395
 H         2.412345        -2.160217         0.470661
