19
Iteration:  1621
 C         2.528788         2.315394         0.763546
 C         2.440488         0.845952         1.214469
 C         2.736492         0.433866         2.642361
 C         1.970320        -0.935732         2.381488
 O         0.614946        -0.633328         2.078475
 C         1.128380        -0.000664         0.843603
 C         0.017511         0.233490        -0.055745
 C         2.259097        -1.102975         0.850791
 O         3.215879        -0.176555         0.492339
 H         1.497948         2.565491         0.704669
 H         3.026281         2.997799         1.363565
 H         2.994777         2.557849        -0.183346
 H         3.757066         0.284126         2.649694
 H         2.332416         1.152582         3.407304
 H         1.995453        -1.716215         3.151329
 H        -0.821829         0.455141         0.528403
 H         0.227650         1.202987        -0.552899
 H         0.116742        -0.471829        -0.841910
 H         2.175770        -2.110775         0.294595
