19
Iteration:  3770
 C         1.516481         2.394463         1.670060
 C         1.842708         0.944547         1.535351
 C         1.655762         0.151649         2.857481
 C         2.051529        -1.091082         2.171061
 O         0.891663        -1.369670         1.251781
 C         1.511033        -0.237842         0.449990
 C         1.167975        -0.000463        -0.940547
 C         2.943132        -0.622653         0.955067
 O         3.250730         0.796311         1.200446
 H         0.598735         2.596184         2.228774
 H         2.315571         2.810430         2.311065
 H         1.467629         2.885599         0.749401
 H         2.363518         0.424918         3.568466
 H         0.576417         0.177183         3.191861
 H         2.360305        -1.972104         2.695496
 H         1.312156        -0.821267        -1.624909
 H         0.135856         0.425238        -1.085853
 H         2.003917         0.767733        -1.149555
 H         3.899066        -1.143708         0.828518
