19
Iteration:   239charge 0 multiplicity 1
 C         2.473795         2.357154         0.795807
 C         2.452333         0.822784         1.174784
 C         2.701611         0.343526         2.603936
 C         1.967262        -1.019764         2.340949
 O         0.725306        -0.425428         2.177763
 C         1.135356         0.010057         0.850067
 C         0.039728         0.245587        -0.105915
 C         2.156332        -1.095645         0.870821
 O         3.259375        -0.239747         0.475118
 H         1.533712         2.851910         1.050200
 H         3.422643         2.852057         0.928392
 H         2.391982         2.442072        -0.307550
 H         3.815761         0.351272         2.781692
 H         2.025625         0.765393         3.435239
 H         2.021013        -1.953336         2.964361
 H        -0.659132        -0.629776         0.088623
 H        -0.454062         1.277440         0.347438
 H         0.472734         0.149116        -1.069849
 H         2.132706        -1.988971         0.311733
