19
Iteration:  4063charge 0 multiplicity 1
 C         1.469004         2.461213         1.695527
 C         1.945954         0.994537         1.557984
 C         1.775045         0.175900         2.852807
 C         1.992759        -1.151491         2.135833
 O         0.820290        -1.201050         1.187164
 C         1.543503        -0.223788         0.422136
 C         0.918362        -0.180095        -1.000032
 C         3.031181        -0.575508         1.018909
 O         3.426555         0.720098         1.293919
 H         0.533976         2.694831         1.140707
 H         1.350835         2.762448         2.784628
 H         2.195651         3.223317         1.370632
 H         2.543220         0.420348         3.567644
 H         0.740600         0.389668         3.340743
 H         2.221417        -2.095812         2.709190
 H         1.122043        -1.225188        -1.246751
 H        -0.193241        -0.099767        -1.029363
 H         1.437563         0.507928        -1.771977
 H         3.575784        -1.443338         0.572059
