19
Iteration:  2609
 C         2.032550         2.494625         1.277770
 C         2.168282         0.997952         1.445945
 C         2.137032         0.333992         2.818235
 C         2.072609        -1.065110         2.268712
 O         0.742649        -1.122393         1.580895
 C         1.296792        -0.165876         0.604823
 C         0.434306        -0.093293        -0.571259
 C         2.619759        -0.757503         0.837472
 O         3.395143         0.399724         0.920400
 H         1.091330         2.740471         0.823472
 H         2.119972         3.136761         2.139951
 H         2.888305         2.918946         0.673630
 H         3.037959         0.615307         3.429630
 H         1.288476         0.467596         3.391063
 H         2.316886        -1.928487         2.934215
 H        -0.545521        -0.602915        -0.391952
 H         0.265739         0.986388        -0.765274
 H         0.801874        -0.617943        -1.376449
 H         2.974780        -1.652561         0.275870
