19
Iteration:   867
 C         2.618461         2.263838         0.696687
 C         2.307325         0.842528         1.179001
 C         2.716934         0.419368         2.586935
 C         2.013501        -1.003800         2.438566
 O         0.599746        -0.585838         2.253145
 C         1.094482        -0.091223         0.959036
 C         0.168700         0.307211        -0.103577
 C         2.195584        -1.102660         0.864159
 O         3.163848        -0.086195         0.350489
 H         1.771140         2.825234         0.453461
 H         3.082695         2.698604         1.553699
 H         3.189254         2.267494        -0.190261
 H         3.760653         0.441893         2.631151
 H         2.282989         1.025209         3.406552
 H         2.038743        -1.707927         3.219144
 H        -0.715749        -0.382346        -0.243666
 H        -0.277777         1.265619        -0.003250
 H         0.625819         0.326681        -1.062947
 H         2.207604        -2.195558         0.471388
