19
Iteration:   904charge 0 multiplicity 1
 C         2.614657         2.279054         0.826705
 C         2.437335         0.847871         1.122974
 C         2.775277         0.427054         2.588407
 C         2.038473        -0.952949         2.442272
 O         0.610088        -0.510970         2.216721
 C         1.050773        -0.029859         0.917362
 C         0.032045         0.233233        -0.188860
 C         2.166961        -1.141304         0.888344
 O         3.159126        -0.193523         0.345985
 H         1.542726         2.750982         0.853697
 H         3.203026         2.846484         1.575060
 H         3.194419         2.613751        -0.074895
 H         3.844502         0.482380         2.768280
 H         2.255551         1.034875         3.314303
 H         2.118499        -1.727617         3.304908
 H        -0.121830        -0.734072        -0.527414
 H        -0.937873         0.632996         0.229875
 H         0.593992         0.981204        -0.766377
 H         2.176800        -2.132567         0.488750
