19
Iteration:   925
 C         2.573542         2.266107         0.730129
 C         2.423553         0.868098         1.215132
 C         2.673511         0.298848         2.609092
 C         1.968265        -0.977807         2.376106
 O         0.641962        -0.370884         2.222219
 C         1.116117        -0.031815         0.877353
 C         0.042868         0.165218        -0.072165
 C         2.215365        -1.060866         0.746326
 O         3.253880        -0.160060         0.430522
 H         1.613078         2.809742         0.972686
 H         3.412073         2.759726         1.172161
 H         2.949720         2.182439        -0.289443
 H         3.652057         0.127628         2.821648
 H         2.209151         0.939162         3.348340
 H         1.940753        -1.687392         3.270376
 H        -0.128414        -0.792951        -0.481284
 H        -0.810680         0.288092         0.655351
 H         0.145039         1.044133        -0.702757
 H         2.096031        -2.064487         0.343064
