19
Iteration:  4161charge 0 multiplicity 1
 C         1.444510         2.345222         1.376237
 C         1.969740         0.981960         1.590284
 C         1.641417         0.161704         2.787974
 C         1.952936        -1.177307         2.206985
 O         0.918273        -1.241819         1.224571
 C         1.675541        -0.212003         0.425955
 C         0.891643         0.090398        -0.825589
 C         2.989134        -0.669952         1.002666
 O         3.464417         0.702870         1.395681
 H         0.612705         2.519474         2.024995
 H         2.174488         3.121499         1.624600
 H         1.074630         2.456555         0.365626
 H         2.154074         0.127166         3.704011
 H         0.546258         0.186298         3.085317
 H         2.177546        -2.121563         2.696481
 H         0.489912        -0.848394        -1.217096
 H         0.137311         0.890879        -0.582624
 H         1.499977         0.682149        -1.594754
 H         3.825964        -1.188433         0.535735
