19
Iteration:   649charge 0 multiplicity 1
 C         2.652745         2.236730         0.598407
 C         2.294121         0.904005         1.244536
 C         2.681148         0.393590         2.685880
 C         1.958043        -1.005212         2.395748
 O         0.625614        -0.669685         2.159076
 C         1.049551        -0.061702         0.898603
 C         0.081044         0.320732        -0.067758
 C         2.269665        -1.006380         0.861177
 O         3.220595        -0.043160         0.430044
 H         2.001465         2.997922         0.859259
 H         3.729517         2.290034         0.904784
 H         2.770883         1.947525        -0.461962
 H         3.705248         0.339401         2.829865
 H         2.242806         0.824758         3.611184
 H         1.992512        -1.829219         3.248343
 H        -0.570401        -0.606885        -0.129142
 H        -0.523353         1.072309         0.246902
 H         0.548656         0.558126        -1.025334
 H         2.289921        -2.126955         0.431973
