19
Iteration:  2722
 C         1.823530         2.384694         1.209756
 C         2.100595         0.989916         1.477426
 C         2.115671         0.248579         2.855195
 C         2.029957        -1.173615         2.250160
 O         0.745636        -1.065610         1.592027
 C         1.320592        -0.207436         0.655852
 C         0.536918         0.069427        -0.639410
 C         2.807435        -0.767550         0.822539
 O         3.422572         0.489042         0.992037
 H         2.168961         3.005496         2.086762
 H         2.403592         2.709744         0.317676
 H         0.826943         2.572465         0.878237
 H         3.070312         0.491235         3.314739
 H         1.288749         0.517988         3.628552
 H         2.132682        -1.926651         3.011832
 H         1.129712         0.639631        -1.342252
 H         0.320516        -0.920424        -1.109881
 H        -0.519956         0.560228        -0.528218
 H         3.252841        -1.512858         0.160836
