19
Iteration:  2219
 C         2.213765         2.421942         0.925023
 C         2.230505         0.905695         1.337197
 C         2.471186         0.419210         2.762302
 C         2.042672        -1.104744         2.360664
 O         0.595307        -0.963719         1.906632
 C         1.206740        -0.124085         0.829044
 C         0.340921         0.192055        -0.374270
 C         2.472732        -0.972697         0.861145
 O         3.321586         0.194469         0.652765
 H         3.177579         2.714249         0.566990
 H         1.520715         2.581843         0.116554
 H         1.791740         3.020838         1.786852
 H         3.522654         0.657337         3.036884
 H         1.798384         0.713040         3.498508
 H         2.162736        -1.906350         3.084690
 H        -0.085802         1.178840        -0.403692
 H         0.924719         0.090725        -1.308106
 H        -0.482720        -0.437347        -0.558326
 H         2.828153        -1.721905         0.160267
