19
Iteration:  2341
 C         2.088632         2.523649         1.110608
 C         2.218685         0.962155         1.341479
 C         2.374497         0.375309         2.672169
 C         2.068902        -1.117420         2.304876
 O         0.612547        -0.936593         1.852767
 C         1.193832        -0.190340         0.748996
 C         0.447843         0.067732        -0.414146
 C         2.496275        -0.950986         0.824265
 O         3.365169         0.261853         0.768129
 H         1.070407         2.938538         1.027456
 H         2.772684         2.995854         1.880665
 H         2.510012         2.558766         0.057242
 H         3.409869         0.423013         3.156266
 H         1.729145         0.638655         3.471311
 H         2.259939        -1.935206         3.044361
 H         0.282616        -0.821460        -0.991283
 H        -0.539044         0.501424        -0.415175
 H         1.078612         0.724294        -1.075807
 H         2.689164        -1.831128         0.194219
