19
Iteration:  4880
 C         1.119137         2.355848         1.675892
 C         1.785104         1.012655         1.515726
 C         1.857486        -0.009864         2.881124
 C         2.286208        -1.207363         2.115319
 O         0.976575        -1.466655         1.319652
 C         1.558760        -0.261949         0.527109
 C         1.163272         0.077675        -0.828150
 C         2.956128        -0.491821         0.902374
 O         3.218020         0.917707         1.089942
 H         0.071771         2.428507         1.420588
 H         1.174273         2.885368         2.671585
 H         1.583640         3.239764         1.100009
 H         2.669691         0.316246         3.612964
 H         0.934872         0.022843         3.451982
 H         2.613933        -2.206095         2.430566
 H         0.453470         0.921466        -0.741864
 H         1.969849         0.524697        -1.453840
 H         0.572892        -0.745075        -1.362815
 H         3.713614        -0.869042         0.177264
