19
Iteration:  2441
 C         2.214589         2.430628         1.170757
 C         2.124766         0.924771         1.399279
 C         2.198470         0.330144         2.836913
 C         2.000253        -1.084715         2.301316
 O         0.654814        -1.048867         1.793051
 C         1.290227        -0.149657         0.686056
 C         0.423012        -0.012480        -0.496481
 C         2.653177        -0.852978         0.813536
 O         3.330489         0.454819         0.717097
 H         2.872161         2.901386         2.032411
 H         2.740250         2.599344         0.173477
 H         1.169348         2.726686         1.239044
 H         3.154503         0.614376         3.184861
 H         1.443273         0.825924         3.550366
 H         2.307364        -2.033838         2.725508
 H        -0.082804         0.964209        -0.629490
 H         0.847637        -0.329085        -1.429936
 H        -0.487131        -0.712028        -0.344234
 H         2.989761        -1.639535         0.137989
