19
Iteration:   621
 C         2.567514         2.336199         0.724673
 C         2.537225         0.875190         1.209759
 C         2.682854         0.391390         2.649329
 C         2.035836        -0.997555         2.349373
 O         0.626168        -0.532692         2.212011
 C         0.993866        -0.070531         0.909974
 C         0.052824         0.245116        -0.121437
 C         2.182222        -1.060904         0.781249
 O         3.245356        -0.188761         0.472534
 H         1.490855         2.728445         1.022501
 H         3.264427         3.008405         1.218914
 H         2.761662         2.278629        -0.352051
 H         3.765193         0.272836         3.028700
 H         1.957537         0.894355         3.404328
 H         2.191063        -1.759519         3.030625
 H        -0.829787        -0.400965        -0.019622
 H        -0.342279         1.383630        -0.313032
 H         0.501599        -0.024398        -1.078432
 H         2.238394        -2.028756         0.413760
