19
Iteration:  3045
 C         1.549095         2.331721         1.380030
 C         2.081126         0.934094         1.582121
 C         1.853562         0.267890         2.876365
 C         2.104377        -1.124826         2.174589
 O         0.837324        -1.171335         1.343600
 C         1.461943        -0.208899         0.576644
 C         0.767786        -0.000509        -0.759830
 C         2.906995        -0.643181         0.855398
 O         3.396508         0.623970         1.195693
 H         2.382206         2.979453         1.157563
 H         0.887741         2.354414         0.488251
 H         0.914132         2.711207         2.166323
 H         2.590213         0.606286         3.515559
 H         0.909019         0.159199         3.459194
 H         2.278725        -1.993372         2.845076
 H         0.183144        -0.854520        -0.984175
 H         0.039408         0.825230        -0.797048
 H         1.493230         0.103310        -1.577414
 H         3.471786        -1.364166         0.214553
