19
Iteration:  2778
 C         1.916288         2.442692         1.387588
 C         2.022532         0.985617         1.362447
 C         2.044024         0.309409         2.875817
 C         2.023914        -1.047625         2.244869
 O         0.744378        -1.211010         1.572764
 C         1.402163        -0.277942         0.603239
 C         0.601832        -0.019113        -0.693131
 C         2.783547        -0.756864         0.885492
 O         3.356252         0.537320         0.909182
 H         2.943424         2.921626         1.160413
 H         1.201903         2.872539         0.686866
 H         1.774372         2.810346         2.401961
 H         2.795036         0.686392         3.591537
 H         0.992217         0.353987         3.401218
 H         2.409435        -1.824275         2.915481
 H         0.620893        -0.691958        -1.568479
 H        -0.492796        -0.122476        -0.447107
 H         0.836640         1.100436        -0.948470
 H         3.355702        -1.526287         0.431089
