19
Iteration:  1762charge 0 multiplicity 1
 C         2.552704         2.432997         0.699347
 C         2.412190         0.939419         1.174639
 C         2.623554         0.385520         2.758886
 C         2.016584        -1.053269         2.426642
 O         0.583637        -0.718661         2.103942
 C         1.105854        -0.163123         0.937186
 C         0.136029         0.255748        -0.183749
 C         2.290907        -1.066625         0.868923
 O         3.209523        -0.041396         0.450908
 H         3.275250         3.032298         1.366031
 H         2.840413         2.388102        -0.375936
 H         1.516078         2.967298         0.660785
 H         3.675217         0.385515         2.922047
 H         1.932406         0.983757         3.495092
 H         2.028745        -1.819985         3.274858
 H         0.556757         1.162638        -0.718919
 H        -0.109845        -0.538809        -0.984681
 H        -0.883150         0.375231         0.307499
 H         2.392103        -2.110754         0.335196
