19
Iteration:  3981charge 0 multiplicity 1
 C         1.366032         2.302615         1.314100
 C         1.862484         0.861084         1.535034
 C         1.775172         0.147813         2.861594
 C         2.012618        -1.206061         2.215206
 O         0.866205        -1.293247         1.233579
 C         1.555839        -0.256615         0.534619
 C         1.069736         0.286235        -0.784484
 C         3.017226        -0.650726         1.039508
 O         3.354551         0.730706         1.246483
 H         0.380676         2.441772         1.733744
 H         1.975651         2.838340         2.001183
 H         1.424209         2.627503         0.234831
 H         2.553202         0.621210         3.531301
 H         0.839957        -0.029398         3.347880
 H         2.277220        -2.002456         2.953808
 H         1.006837        -0.406464        -1.704322
 H         0.111717         0.891918        -0.635874
 H         1.866006         0.986294        -1.001171
 H         3.705507        -1.343488         0.606116
