19
Iteration:  4604
 C         1.163352         2.279960         1.447920
 C         1.900553         0.996790         1.621234
 C         1.787543         0.101561         2.889844
 C         2.103738        -1.172645         2.178120
 O         1.011867        -1.374003         1.212340
 C         1.614693        -0.187154         0.483577
 C         0.945242         0.153852        -0.897571
 C         3.035384        -0.556282         0.938463
 O         3.394636         0.775506         1.339443
 H         0.177208         2.230395         1.895450
 H         1.722872         3.064231         1.974135
 H         0.868069         2.695477         0.527392
 H         2.594687         0.354556         3.552784
 H         0.765975         0.009318         3.338540
 H         2.439101        -2.134431         2.477167
 H         0.970318         1.265821        -1.081323
 H         1.343707        -0.505810        -1.723483
 H        -0.101028        -0.174433        -0.711386
 H         3.705761        -1.178941         0.323116
