19
Iteration:  4560charge 0 multiplicity 1
 C         1.352390         2.337778         1.703495
 C         1.843174         0.925531         1.564415
 C         1.773453         0.108627         2.949444
 C         2.088780        -1.203375         2.191738
 O         0.972788        -1.384978         1.293390
 C         1.506141        -0.242430         0.497896
 C         1.226073         0.024539        -0.985665
 C         2.905872        -0.474093         0.941522
 O         3.207819         0.922466         1.084999
 H         0.282193         2.411353         2.029641
 H         1.973276         2.937154         2.395394
 H         1.387516         2.675647         0.705321
 H         2.685777         0.279633         3.507152
 H         0.783663        -0.087408         3.509025
 H         2.474344        -2.071291         2.699925
 H         0.559814         0.916367        -1.126034
 H         2.122819         0.050236        -1.690088
 H         0.517100        -0.762580        -1.439966
 H         3.553544        -1.219103         0.336164
