19
Iteration:  2538
 C         1.935575         2.346475         1.122558
 C         2.121836         1.003501         1.533980
 C         2.279922         0.312768         2.804834
 C         2.071200        -1.134666         2.336643
 O         0.705073        -1.124592         1.761133
 C         1.241975        -0.150212         0.691101
 C         0.507515         0.174582        -0.619718
 C         2.619174        -0.789864         0.804378
 O         3.402546         0.373750         0.827294
 H         2.282725         2.274110         0.016374
 H         0.855844         2.707248         1.095549
 H         2.499490         2.962638         1.804038
 H         3.179489         0.549486         3.373251
 H         1.360510         0.730850         3.395686
 H         2.444894        -1.916181         2.977751
 H         0.853290        -0.459965        -1.399344
 H        -0.487113        -0.070884        -0.396213
 H         0.700266         1.173301        -1.186764
 H         2.840277        -1.651907         0.165155
