19
Iteration:   255
 C         2.505468         2.285411         0.814968
 C         2.434660         0.833913         1.155535
 C         2.720354         0.360254         2.623063
 C         2.020652        -0.973048         2.420210
 O         0.629302        -0.348652         2.160272
 C         1.166413        -0.024115         0.863460
 C         0.028180         0.198482        -0.087824
 C         2.203357        -1.151568         0.762113
 O         3.238594        -0.222461         0.444254
 H         1.664533         2.631228         1.467959
 H         3.508186         2.760559         1.210143
 H         2.304770         2.628413        -0.211652
 H         3.768581         0.351952         2.834563
 H         2.261172         0.923965         3.386227
 H         1.976233        -1.687689         3.218909
 H        -0.499909        -0.715643        -0.230118
 H        -0.669115         0.872297         0.304247
 H         0.315875         0.618089        -1.120376
 H         2.107247        -2.157892         0.186778
