19
Iteration:  3125charge 0 multiplicity 1
 C         1.505625         2.474200         1.451987
 C         1.911098         0.975396         1.554830
 C         1.830289         0.168842         2.881910
 C         2.131531        -1.233764         2.160804
 O         0.849844        -1.219277         1.389162
 C         1.512116        -0.221235         0.533845
 C         0.902577        -0.049143        -0.823746
 C         2.910882        -0.579628         0.860591
 O         3.361636         0.690756         1.184156
 H         1.084884         2.805075         0.472078
 H         0.685219         2.634291         2.113490
 H         2.373517         3.097536         1.667727
 H         2.587357         0.551942         3.629796
 H         0.797437         0.143229         3.258172
 H         2.421516        -2.145556         2.692364
 H         0.332595         0.898583        -0.995043
 H         1.771821        -0.160345        -1.498572
 H         0.238511        -0.959034        -1.041332
 H         3.459013        -1.380136         0.424794
