19
Iteration:  2385
 C         2.013884         2.320127         1.129972
 C         2.245923         0.947591         1.343996
 C         2.308233         0.322018         2.744904
 C         2.008865        -1.025131         2.345957
 O         0.659728        -0.904648         1.757894
 C         1.250611        -0.181912         0.724655
 C         0.373623         0.124220        -0.418283
 C         2.656901        -0.967118         0.821036
 O         3.422155         0.295984         0.751503
 H         1.603520         2.770009         2.086135
 H         3.047493         2.758625         0.897835
 H         1.273931         2.571993         0.318260
 H         3.164288         0.712729         3.311748
 H         1.421731         0.778451         3.191345
 H         2.057157        -1.845936         3.075586
 H        -0.660915        -0.103881        -0.215711
 H         0.373743         1.192069        -0.569909
 H         0.682970        -0.354907        -1.398449
 H         3.010955        -1.782549         0.183141
