19
Iteration:  4028
 C         1.555821         2.473336         1.469345
 C         1.867242         0.949946         1.562657
 C         1.672600         0.126327         2.851414
 C         2.115461        -1.191391         2.112567
 O         0.894016        -1.342700         1.217716
 C         1.529947        -0.200942         0.532618
 C         0.937593         0.024670        -0.829136
 C         2.977738        -0.554744         0.978491
 O         3.354418         0.746954         1.338947
 H         0.597906         2.628763         0.911582
 H         1.501129         2.944910         2.474826
 H         2.360532         2.749665         0.834898
 H         2.405928         0.390300         3.655575
 H         0.590634         0.127829         3.137121
 H         2.131749        -2.142958         2.606066
 H         0.689752        -1.029069        -1.220515
 H         0.021793         0.648501        -0.865906
 H         1.683934         0.373805        -1.681934
 H         3.750516        -1.241754         0.448135
