19
Iteration:  1159charge 0 multiplicity 1
 C         2.550646         2.331010         0.683741
 C         2.487303         0.869996         1.177763
 C         2.719958         0.354728         2.603961
 C         1.988953        -0.960702         2.374893
 O         0.579113        -0.544178         2.156925
 C         1.079754        -0.069208         0.849569
 C        -0.024335         0.281068        -0.039801
 C         2.262679        -1.105782         0.847031
 O         3.292463        -0.203426         0.549112
 H         1.579520         2.819650         0.956930
 H         3.483323         3.067810         0.792916
 H         2.500836         2.233526        -0.437657
 H         3.793907         0.278448         2.950922
 H         2.127030         0.830019         3.333115
 H         2.146110        -1.784321         3.030447
 H        -0.516916        -0.487296        -0.717620
 H        -0.827233         0.743656         0.562946
 H         0.223205         1.218678        -0.599746
 H         2.337720        -1.940350         0.210966
