19
Iteration:  3334charge 0 multiplicity 1
 C         1.269366         2.263481         1.403254
 C         1.927849         0.981774         1.642013
 C         1.778137         0.115621         2.872366
 C         2.125927        -1.167596         2.240525
 O         0.816996        -1.356254         1.275310
 C         1.496774        -0.249272         0.530810
 C         1.237786         0.167792        -0.913228
 C         2.960312        -0.555912         0.954842
 O         3.282243         0.779747         1.255800
 H         1.913946         2.801345         0.690933
 H         0.289013         2.240379         0.866243
 H         1.144330         2.805727         2.395787
 H         2.592685         0.310294         3.672110
 H         0.829870         0.117208         3.361806
 H         2.410474        -2.131648         2.631907
 H         0.425370        -0.466618        -1.420796
 H         0.932268         1.205629        -0.943935
 H         2.148947         0.094176        -1.487219
 H         3.749938        -0.982084         0.311563
