19
Iteration:  1188charge 0 multiplicity 1
 C         2.632541         2.232172         0.832348
 C         2.323388         0.800435         1.106503
 C         2.655195         0.443174         2.640400
 C         1.998100        -0.855947         2.533307
 O         0.626193        -0.596714         2.149732
 C         1.127909        -0.078626         0.833826
 C         0.052473         0.252679        -0.101361
 C         2.270556        -1.119615         0.854554
 O         3.187691        -0.124440         0.356122
 H         2.173043         2.904272         1.510570
 H         3.695740         2.260827         0.924004
 H         2.211303         2.505593        -0.154864
 H         3.845299         0.321363         2.757874
 H         2.199264         1.052953         3.398280
 H         2.131106        -1.600609         3.254311
 H        -0.462685        -0.551009        -0.599699
 H        -0.666645         0.938434         0.361252
 H         0.385074         1.056699        -0.859996
 H         2.308900        -2.008750         0.257002
