19
Iteration:  1276
 C         2.457864         2.328978         0.805264
 C         2.474162         0.869710         1.109291
 C         2.623143         0.434892         2.620614
 C         1.973339        -0.988874         2.459916
 O         0.658019        -0.571418         2.192953
 C         1.175532        -0.106802         0.832200
 C        -0.007527         0.342260        -0.128306
 C         2.241531        -1.179974         0.846549
 O         3.303150        -0.176576         0.445839
 H         1.820866         2.901694         1.423125
 H         3.449731         2.697595         0.739569
 H         2.113817         2.456627        -0.218114
 H         3.769661         0.463711         2.904117
 H         2.145259         0.930283         3.391852
 H         2.097646        -1.793782         3.091336
 H        -0.901917        -0.033133         0.368017
 H        -0.017383         1.418940        -0.233478
 H         0.163268         0.055021        -1.212163
 H         2.296712        -2.099990         0.319952
