19
Iteration:   243charge 0 multiplicity 1
 C         2.474575         2.332551         0.788023
 C         2.440397         0.849932         1.157680
 C         2.694742         0.347922         2.615988
 C         1.968695        -1.031082         2.344635
 O         0.751018        -0.390490         2.161224
 C         1.158571         0.009065         0.855101
 C         0.040151         0.224009        -0.092463
 C         2.160634        -1.109807         0.858832
 O         3.230615        -0.250750         0.488368
 H         1.578833         2.848289         1.242510
 H         3.459912         2.926773         1.108559
 H         2.340077         2.462528        -0.292613
 H         3.722904         0.330632         2.770455
 H         2.050311         0.801952         3.393697
 H         2.034237        -1.890961         3.045227
 H        -0.585558        -0.628413         0.046964
 H        -0.456009         1.125368         0.314132
 H         0.372961         0.308196        -1.186874
 H         2.098475        -2.057248         0.172040
