19
Iteration:  2308charge 0 multiplicity 1
 C         2.219194         2.397080         1.092987
 C         2.271858         1.020341         1.341406
 C         2.324795         0.289905         2.876684
 C         2.076239        -1.057669         2.401902
 O         0.686787        -0.906216         1.843462
 C         1.194958        -0.170327         0.717545
 C         0.297127         0.041523        -0.531912
 C         2.498336        -0.950921         0.882725
 O         3.293749         0.335072         0.591522
 H         1.498771         2.730325         0.355765
 H         2.185080         3.037125         2.010966
 H         3.287936         2.546527         0.803410
 H         3.329085         0.363168         3.415326
 H         1.544698         0.688517         3.431518
 H         2.206295        -1.931330         3.092166
 H         0.852070        -0.486698        -1.264505
 H        -0.684096        -0.400342        -0.353824
 H         0.232792         1.081931        -0.901558
 H         2.839394        -1.887293         0.410160
