19
Iteration:  4096charge 0 multiplicity 1
 C         1.521399         2.444775         1.554881
 C         1.886008         0.959217         1.557603
 C         1.763805         0.137219         2.882525
 C         2.035225        -1.169494         2.215117
 O         0.844580        -1.245919         1.278282
 C         1.503710        -0.255746         0.558492
 C         1.154755         0.046284        -0.922907
 C         2.902452        -0.671240         0.946977
 O         3.272553         0.709770         1.154675
 H         0.452856         2.640808         1.381512
 H         1.548245         2.767614         2.642442
 H         2.072665         3.195988         0.942311
 H         2.431030         0.508162         3.628207
 H         0.693730         0.294804         3.316217
 H         2.510857        -2.035265         2.721542
 H         1.753259        -0.752259        -1.370733
 H         0.078004        -0.153617        -1.219314
 H         1.539324         1.045263        -1.368852
 H         3.415968        -1.384690         0.223012
