19
Iteration:  1973
 C         2.493181         2.354932         0.943193
 C         2.419204         0.967769         1.293173
 C         2.480533         0.396421         2.739926
 C         1.986651        -0.977836         2.439054
 O         0.622103        -0.785149         2.034612
 C         1.060434        -0.154809         0.862639
 C         0.182295         0.090490        -0.338370
 C         2.395942        -0.992784         0.811050
 O         3.233611         0.099949         0.465487
 H         1.581141         2.489440         0.355046
 H         2.730920         2.992387         1.846881
 H         3.385009         2.509680         0.298206
 H         3.560058         0.456845         3.037049
 H         1.880937         1.016296         3.339101
 H         2.155409        -1.842952         3.041146
 H        -0.351017         1.027722        -0.292728
 H         0.742521         0.072979        -1.229939
 H        -0.663406        -0.638300        -0.356328
 H         2.634382        -1.893158         0.292903
