19
Iteration:   258
 C         2.520558         2.283630         0.844763
 C         2.446155         0.793508         1.161182
 C         2.737867         0.370379         2.615207
 C         2.016760        -0.936644         2.442426
 O         0.587910        -0.361378         2.167302
 C         1.136462        -0.037377         0.861315
 C         0.013583         0.211118        -0.098453
 C         2.209066        -1.144716         0.762744
 O         3.262764        -0.206676         0.412171
 H         1.610495         2.639535         1.402357
 H         3.521925         2.668505         1.077321
 H         2.316401         2.662925        -0.180517
 H         3.862980         0.343210         2.807445
 H         2.255002         0.905881         3.399489
 H         1.968213        -1.693490         3.197804
 H        -0.458685        -0.771267        -0.321867
 H        -0.678987         0.798142         0.425206
 H         0.421055         0.600859        -1.087343
 H         2.176255        -2.103522         0.275690
