19
Iteration:   534charge 0 multiplicity 1
 C         2.595228         2.228915         0.633056
 C         2.405789         0.893748         1.242395
 C         2.643435         0.383951         2.677004
 C         2.000126        -1.064938         2.362240
 O         0.583953        -0.573621         2.196385
 C         1.123269        -0.042029         0.988642
 C         0.154850         0.257130        -0.115156
 C         2.170381        -1.025709         0.794428
 O         3.199492        -0.075520         0.461738
 H         2.178447         3.135424         1.264796
 H         3.631213         2.260080         0.309596
 H         2.158377         2.270299        -0.389229
 H         3.701399         0.463962         3.016968
 H         2.188726         0.996253         3.503887
 H         2.116125        -1.900764         2.961849
 H        -0.276846        -0.673362        -0.382409
 H        -0.648071         1.048318         0.148502
 H         0.801977         0.576569        -0.870749
 H         2.059971        -1.925285         0.262321
