19
Iteration:  3305charge 0 multiplicity 1
 C         1.293705         2.396947         1.433975
 C         1.774187         0.977990         1.562058
 C         1.799605         0.091941         2.863445
 C         2.053493        -1.201676         2.217470
 O         0.984629        -1.351436         1.254657
 C         1.551095        -0.208710         0.542140
 C         1.186551         0.075037        -0.890402
 C         2.913752        -0.607784         1.001221
 O         3.258584         0.789565         1.239583
 H         2.291949         2.875492         1.522927
 H         0.835224         2.828443         0.539857
 H         0.901329         2.739128         2.360154
 H         2.699441         0.287703         3.412478
 H         1.010336         0.162391         3.733772
 H         2.271827        -2.211660         2.612312
 H         0.491979        -0.648720        -1.350676
 H         0.533202         1.014067        -0.985627
 H         2.119944         0.216573        -1.497249
 H         3.662636        -1.118318         0.323724
