19
Iteration:  1357charge 0 multiplicity 1
 C         2.620534         2.268834         0.773402
 C         2.487107         0.880456         1.196796
 C         2.771160         0.436961         2.576508
 C         1.976626        -0.962560         2.400416
 O         0.584274        -0.595608         2.238669
 C         1.076361         0.012630         0.938521
 C         0.051120         0.203104        -0.154729
 C         2.130235        -1.042962         0.832339
 O         3.244926        -0.159788         0.394939
 H         1.623237         2.769731         0.845077
 H         3.237342         2.851376         1.489995
 H         2.853202         2.380307        -0.260530
 H         3.782181         0.418452         2.946479
 H         2.045110         0.903215         3.368347
 H         2.165580        -1.810541         3.152203
 H        -0.065684        -0.756319        -0.709239
 H        -0.968845         0.431363         0.261968
 H         0.235224         0.787574        -1.021628
 H         2.038592        -2.007920         0.372630
