19
Iteration:  3604charge 0 multiplicity 1
 C         1.393953         2.378531         1.609670
 C         1.859724         0.921493         1.570794
 C         1.711308         0.139422         2.887986
 C         1.997371        -1.169285         2.167855
 O         0.946022        -1.277545         1.128166
 C         1.574224        -0.185674         0.407271
 C         1.056445        -0.051587        -0.950553
 C         2.935246        -0.564187         1.027391
 O         3.384833         0.826041         1.375327
 H         0.321296         2.371328         1.636340
 H         1.654721         2.985549         2.436358
 H         1.658396         2.714093         0.602334
 H         2.653994         0.373600         3.485825
 H         0.814241         0.247075         3.393060
 H         2.218836        -2.159001         2.694920
 H         0.825203        -1.122886        -1.358421
 H         0.157253         0.499243        -1.175682
 H         1.904427         0.285781        -1.560706
 H         3.744035        -1.145799         0.483892
