19
Iteration:   551
 C         2.537031         2.326144         0.717501
 C         2.448209         0.826527         1.228843
 C         2.686638         0.359588         2.657670
 C         2.046876        -0.942897         2.410621
 O         0.640258        -0.578639         2.231859
 C         1.086910         0.023526         0.963170
 C         0.131678         0.280823        -0.255816
 C         2.150527        -1.071788         0.853678
 O         3.179419        -0.178170         0.415031
 H         1.996292         2.754234         1.487575
 H         3.593688         2.721775         0.681661
 H         2.064887         2.289392        -0.279312
 H         3.724920         0.348588         2.931362
 H         2.021796         0.819909         3.474847
 H         2.116286        -1.842730         3.185043
 H        -0.574878        -0.648778        -0.169201
 H        -0.441262         1.206491        -0.225085
 H         0.753239         0.330835        -1.237046
 H         2.143314        -2.055089         0.236690
