19
Iteration:   789
 C         2.592678         2.280040         0.786146
 C         2.348923         0.820883         1.117819
 C         2.653786         0.492724         2.680558
 C         2.067420        -0.953700         2.456295
 O         0.573696        -0.599617         2.206382
 C         1.094844        -0.171282         0.878344
 C         0.032732         0.332607        -0.120108
 C         2.277238        -1.122151         0.877613
 O         3.237353        -0.143729         0.346887
 H         2.222650         3.020013         1.388488
 H         3.723848         2.405793         0.703201
 H         2.395863         2.507600        -0.276707
 H         3.681236         0.536622         3.121886
 H         1.980721         1.109737         3.178490
 H         2.176308        -1.737061         3.300566
 H        -1.000405        -0.161198        -0.013668
 H        -0.110394         1.370803        -0.059013
 H         0.404894         0.221406        -1.216862
 H         2.301815        -2.099485         0.242708
