19
Iteration:  2486charge 0 multiplicity 1
 C         1.976474         2.367212         1.324365
 C         2.251652         1.009084         1.365518
 C         2.280764         0.385387         2.791699
 C         1.958529        -1.020612         2.323317
 O         0.661694        -1.053989         1.762515
 C         1.292323        -0.144014         0.623739
 C         0.423877        -0.015418        -0.604469
 C         2.577342        -0.901252         0.837658
 O         3.462316         0.367320         0.753319
 H         2.936010         2.993117         1.019588
 H         1.336221         2.566290         0.448113
 H         1.666206         2.797965         2.267064
 H         3.227342         0.593527         3.192653
 H         1.595354         0.764151         3.626671
 H         2.261275        -1.824928         2.983525
 H         0.938801         0.514956        -1.438705
 H         0.000034        -0.959025        -1.011805
 H        -0.437331         0.560229        -0.189919
 H         2.939040        -1.746764         0.242957
