19
Iteration:  2433
 C         2.220285         2.353500         1.139488
 C         2.207503         0.985510         1.426216
 C         2.236816         0.353411         2.851442
 C         1.998136        -1.077595         2.320647
 O         0.674127        -1.058658         1.738889
 C         1.194481        -0.192838         0.741886
 C         0.366370         0.007928        -0.517029
 C         2.649900        -0.821614         0.805870
 O         3.320441         0.444042         0.736790
 H         2.601950         2.949454         2.004357
 H         2.798249         2.576891         0.262878
 H         1.226725         2.781744         0.991572
 H         3.215891         0.508948         3.281876
 H         1.441117         0.763659         3.560689
 H         2.278383        -2.014423         2.818715
 H        -0.218927         0.995034        -0.615685
 H         1.005308        -0.098432        -1.473346
 H        -0.264415        -0.906905        -0.463100
 H         3.092415        -1.581215         0.138243
