19
Iteration:  2617
 C         2.053864         2.592863         1.275603
 C         2.161333         1.067459         1.487030
 C         2.138524         0.316905         2.847251
 C         2.055828        -1.129718         2.204719
 O         0.691925        -1.134946         1.627767
 C         1.271935        -0.192284         0.659910
 C         0.477434        -0.112246        -0.609921
 C         2.697556        -0.819282         0.812597
 O         3.388587         0.429100         0.909453
 H         1.053118         2.627946         0.772547
 H         2.179204         3.151929         2.197731
 H         2.677798         2.882864         0.400052
 H         3.071926         0.604582         3.308146
 H         1.247326         0.525289         3.468950
 H         2.210298        -1.967063         2.906789
 H        -0.514453        -0.365004        -0.244970
 H         0.374823         0.940006        -0.901344
 H         0.715967        -0.721927        -1.446231
 H         2.999279        -1.630792         0.155956
