19
Iteration:   875charge 0 multiplicity 1
 C         2.634690         2.317364         0.747407
 C         2.324650         0.878047         1.139645
 C         2.737058         0.461985         2.601869
 C         1.988792        -0.963474         2.468794
 O         0.589527        -0.617127         2.290433
 C         1.028221        -0.141990         0.886973
 C         0.149875         0.292033        -0.144705
 C         2.198023        -1.114612         0.879423
 O         3.150327        -0.132370         0.321017
 H         1.682039         2.818943         0.634641
 H         3.167367         2.823886         1.664851
 H         3.348781         2.276672        -0.129228
 H         3.988851         0.345089         2.524089
 H         2.483096         1.149694         3.408748
 H         2.158162        -1.771766         3.258452
 H        -0.642222        -0.498933        -0.481904
 H        -0.213526         1.221645         0.318636
 H         0.886991         0.453042        -1.056677
 H         2.122278        -2.144936         0.462929
