19
Iteration:  3430charge 0 multiplicity 1
 C         1.497321         2.436975         1.523797
 C         1.819034         0.973293         1.605674
 C         1.535437         0.113046         2.893471
 C         2.116432        -1.222477         2.104290
 O         0.959872        -1.440890         1.223030
 C         1.488975        -0.245507         0.509156
 C         1.155217         0.035213        -0.944735
 C         2.987138        -0.508014         0.968739
 O         3.282696         0.831519         1.326984
 H         0.718536         2.608059         0.785027
 H         1.218825         2.903207         2.463730
 H         2.461640         2.943964         1.274690
 H         2.200683         0.374255         3.829709
 H         0.523107         0.085252         3.176179
 H         2.423229        -2.047059         2.778492
 H         0.819304        -0.896829        -1.501941
 H         0.383966         0.765215        -1.042065
 H         1.950999         0.459218        -1.521301
 H         3.804111        -0.996674         0.372206
