19
Iteration:   147
 C         2.570591         2.264077         0.787343
 C         2.469700         0.872667         1.179801
 C         2.778553         0.353695         2.680314
 C         1.981606        -0.927742         2.425534
 O         0.544030        -0.481344         2.114506
 C         1.147002        -0.028605         0.871404
 C        -0.027313         0.240449        -0.084575
 C         2.261792        -1.082490         0.856060
 O         3.231988        -0.188067         0.388928
 H         2.060919         2.901712         1.469359
 H         3.581712         2.496873         0.616431
 H         2.046674         2.390081        -0.133540
 H         3.840767         0.230553         2.671269
 H         2.352045         0.830788         3.508139
 H         1.902311        -1.697231         3.189753
 H        -0.579457        -0.691370        -0.196782
 H        -0.672661         0.950140         0.386720
 H         0.177229         0.536544        -1.183089
 H         2.260906        -2.101516         0.364607
