19
Iteration:  4767charge 0 multiplicity 1
 C         1.197006         2.389975         1.472398
 C         1.788563         0.899809         1.555742
 C         1.761620         0.029435         2.894219
 C         2.315366        -1.205966         2.124423
 O         1.024151        -1.496258         1.236935
 C         1.626361        -0.278146         0.519316
 C         0.970132         0.226377        -0.786773
 C         3.046696        -0.512892         0.964710
 O         3.219602         0.910847         1.237635
 H         0.213864         2.265895         2.036840
 H         2.061250         2.954384         1.933401
 H         0.946880         2.681241         0.469158
 H         2.501895         0.449803         3.556221
 H         0.745794        -0.077551         3.360281
 H         2.532995        -2.207978         2.476012
 H         0.215195        -0.521911        -1.111357
 H         0.542809         1.217753        -0.644802
 H         1.631897         0.346755        -1.601826
 H         3.827620        -0.885710         0.341629
