19
Iteration:   723
 C         2.513827         2.298249         0.780175
 C         2.469550         0.813018         1.183236
 C         2.772142         0.318135         2.628627
 C         1.904295        -0.904197         2.481670
 O         0.624400        -0.430384         2.174685
 C         1.130801        -0.041132         0.852925
 C         0.059073         0.156329        -0.191384
 C         2.246496        -1.141721         0.868363
 O         3.188035        -0.083387         0.441534
 H         2.527536         2.804295         1.684893
 H         3.495189         2.382374         0.197406
 H         1.646978         2.625309         0.178435
 H         3.862489         0.181486         2.756432
 H         2.437399         0.996847         3.314209
 H         1.978465        -1.885853         3.085506
 H        -0.258921        -0.728866        -0.814488
 H        -0.857520         0.530080         0.221278
 H         0.396361         1.039327        -0.883628
 H         2.186170        -2.264755         0.500364
