19
Iteration:  3617
 C         1.304658         2.329667         1.474621
 C         1.906578         1.006406         1.634966
 C         1.770064         0.115152         2.908505
 C         1.979438        -1.201571         2.150859
 O         0.920593        -1.262604         1.209613
 C         1.564394        -0.187168         0.556738
 C         1.146793         0.019506        -0.971069
 C         3.028312        -0.551541         0.928514
 O         3.278118         0.716546         1.327116
 H         0.229892         2.211538         1.372734
 H         1.596256         2.960690         2.335807
 H         1.688994         2.939483         0.676956
 H         2.561079         0.485440         3.601833
 H         0.802023         0.138728         3.454179
 H         2.126366        -2.151511         2.660167
 H         0.863286        -0.944408        -1.458675
 H         0.377511         0.802761        -0.909393
 H         1.953081         0.534556        -1.564575
 H         3.802323        -1.163096         0.385565
