19
Iteration:  2501
 C         1.936066         2.476040         1.205247
 C         2.136245         0.915060         1.407621
 C         2.288549         0.300626         2.797549
 C         2.021119        -1.114699         2.308846
 O         0.651131        -0.932073         1.696634
 C         1.328216        -0.214176         0.716863
 C         0.496332         0.059979        -0.509052
 C         2.697324        -0.885835         0.849220
 O         3.365827         0.366746         0.737725
 H         2.804734         2.910934         0.802234
 H         1.061985         2.742746         0.631256
 H         1.796914         3.017637         2.178315
 H         3.361007         0.341921         3.217647
 H         1.537230         0.696206         3.421298
 H         2.018252        -1.994743         2.985712
 H         1.142178         0.044677        -1.464834
 H        -0.168922        -0.876827        -0.558224
 H        -0.159177         0.921213        -0.433189
 H         3.065360        -1.761689         0.289214
