19
Iteration:  3049charge 0 multiplicity 1
 C         1.551661         2.331813         1.382296
 C         2.085553         0.933758         1.569604
 C         1.809785         0.265786         2.875944
 C         2.113321        -1.149804         2.206046
 O         0.859654        -1.187849         1.347595
 C         1.427129        -0.184305         0.556833
 C         0.747094         0.021182        -0.777888
 C         2.913932        -0.680272         0.875248
 O         3.408524         0.650337         1.188370
 H         2.378241         3.083810         1.185771
 H         0.908611         2.253669         0.532710
 H         1.089293         2.805242         2.262815
 H         2.700065         0.667835         3.480203
 H         0.831954         0.209180         3.403326
 H         2.367740        -2.064557         2.748594
 H         0.132820        -0.908819        -0.898256
 H         0.070049         0.910943        -0.839109
 H         1.545257        -0.038537        -1.625143
 H         3.490894        -1.332042         0.256826
