19
Iteration:  2605charge 0 multiplicity 1
 C         2.031209         2.434426         1.266544
 C         2.159098         0.966733         1.426272
 C         2.138744         0.352704         2.805980
 C         2.071428        -1.030366         2.299458
 O         0.771450        -1.105904         1.567623
 C         1.319697        -0.172941         0.611947
 C         0.380914        -0.063330        -0.556005
 C         2.598707        -0.767965         0.846940
 O         3.409501         0.396204         0.913764
 H         1.062266         2.902740         0.857836
 H         2.007283         3.034357         2.211272
 H         2.945185         2.835354         0.806825
 H         2.965090         0.534027         3.453808
 H         1.182389         0.529937         3.427297
 H         2.368726        -1.916242         2.855527
 H        -0.498149        -0.656719        -0.423125
 H         0.157589         0.949264        -0.869203
 H         1.011970        -0.482906        -1.420245
 H         3.085588        -1.567947         0.318540
