19
Iteration:   161
 C         2.589612         2.228542         0.765090
 C         2.501935         0.783460         1.217707
 C         2.677566         0.435136         2.597396
 C         1.974768        -0.949102         2.407960
 O         0.664439        -0.553136         2.186044
 C         1.070225        -0.044055         0.889326
 C        -0.003576         0.288342        -0.104776
 C         2.164230        -1.122537         0.819956
 O         3.257661        -0.126072         0.407013
 H         2.092054         2.865021         1.539161
 H         3.592099         2.617049         0.701463
 H         2.092303         2.397550        -0.231751
 H         3.713567         0.327808         3.124314
 H         2.126771         1.192860         3.172422
 H         2.211986        -1.746607         3.047153
 H        -0.759268        -0.541553        -0.007128
 H        -0.607036         1.375206         0.157906
 H         0.527888         0.422371        -1.122660
 H         2.129927        -2.046498         0.357696
