19
Iteration:  2114charge 0 multiplicity 1
 C         2.409597         2.401794         0.947040
 C         2.230256         0.900983         1.301060
 C         2.401343         0.419111         2.728558
 C         2.034763        -1.031053         2.382776
 O         0.586233        -0.823475         1.972575
 C         1.222234        -0.165008         0.823767
 C         0.269333         0.070359        -0.266294
 C         2.452613        -0.947313         0.792063
 O         3.294691         0.170741         0.554026
 H         1.910543         2.996197         1.708829
 H         3.521579         2.553807         0.809399
 H         1.961512         2.810333         0.048998
 H         3.547113         0.476165         2.960193
 H         1.699385         0.702477         3.466398
 H         2.179853        -1.974067         2.905610
 H         0.087212        -0.793698        -0.924011
 H        -0.693692         0.226084         0.232968
 H         0.505195         0.933008        -0.998197
 H         2.514450        -1.833935         0.197297
