19
Iteration:   335charge 0 multiplicity 1
 C         2.622962         2.252401         0.625340
 C         2.462436         0.838427         1.225440
 C         2.669094         0.383617         2.734705
 C         2.014386        -0.979323         2.460496
 O         0.584911        -0.582402         2.147327
 C         1.102693        -0.031388         0.895556
 C        -0.035367         0.303844        -0.131835
 C         2.238766        -1.072965         0.794031
 O         3.262986        -0.108381         0.454314
 H         2.159059         3.140965         1.330957
 H         3.766214         2.410697         0.482321
 H         2.071272         2.197346        -0.372330
 H         3.735730         0.282624         3.099921
 H         1.968619         1.022294         3.357076
 H         1.983183        -1.867850         3.161994
 H        -0.462202        -0.721950        -0.246715
 H        -0.713753         0.948751         0.471107
 H         0.357961         0.731372        -1.067167
 H         2.237962        -1.988937         0.253198
