19
Iteration:  3759charge 0 multiplicity 1
 C         1.589126         2.472097         1.729053
 C         1.785493         0.997559         1.531963
 C         1.699499         0.177241         2.829783
 C         2.000895        -1.174531         2.129020
 O         0.929953        -1.372033         1.173128
 C         1.558689        -0.321541         0.467515
 C         1.165287        -0.081168        -0.956529
 C         2.894719        -0.512175         1.024959
 O         3.232400         0.802221         1.252636
 H         0.670245         2.675229         2.277020
 H         2.506101         2.852462         2.222375
 H         1.559729         2.973200         0.817148
 H         2.296496         0.521142         3.605352
 H         0.653471         0.039206         3.283665
 H         2.432551        -1.915267         2.739615
 H         1.259885        -1.056254        -1.438890
 H         0.086027         0.309875        -0.950526
 H         1.615882         0.726366        -1.627453
 H         3.575352        -1.256831         0.522203
