19
Iteration:  3846
 C         1.399340         2.323125         1.356295
 C         1.878249         0.903618         1.563893
 C         1.681109         0.128334         2.893083
 C         2.049872        -1.209772         2.109961
 O         0.914629        -1.223727         1.215082
 C         1.627883        -0.220694         0.522542
 C         0.958713         0.185687        -0.792418
 C         3.030097        -0.643354         1.005274
 O         3.391683         0.730989         1.341335
 H         0.341658         2.292578         1.002137
 H         1.461228         2.980809         2.262089
 H         1.892218         2.836971         0.570416
 H         2.422249         0.242579         3.603844
 H         0.667154        -0.062461         3.369807
 H         2.315217        -2.058083         2.705165
 H         0.770401        -0.681334        -1.359584
 H        -0.069856         0.513693        -0.629943
 H         1.543904         0.867087        -1.461126
 H         3.842037        -1.207287         0.471249
