19
Iteration:  1310
 C         2.505223         2.305262         0.671885
 C         2.414743         0.793871         1.148523
 C         2.619716         0.426172         2.637627
 C         2.028802        -0.963756         2.441807
 O         0.601688        -0.636842         2.211081
 C         1.122951        -0.116695         0.892772
 C         0.101029         0.387080        -0.065458
 C         2.272558        -1.135419         0.881991
 O         3.238276        -0.104799         0.398250
 H         1.600623         2.864683         0.806797
 H         3.259650         2.864762         1.234873
 H         2.719115         2.305579        -0.372435
 H         3.758360         0.272600         2.807740
 H         2.087393         0.952502         3.421784
 H         2.183309        -1.851752         3.050377
 H        -0.916954        -0.086201        -0.150324
 H        -0.073600         1.441506         0.164464
 H         0.427847         0.259403        -1.126669
 H         2.302760        -2.083169         0.447161
