19
Iteration:  4086
 C         1.474093         2.466762         1.680014
 C         1.969486         1.008048         1.514158
 C         1.756392         0.192479         2.837766
 C         2.033319        -1.156899         2.152866
 O         0.857914        -1.268578         1.287001
 C         1.496060        -0.193150         0.494748
 C         1.152671        -0.103588        -0.917275
 C         2.861863        -0.629109         0.914239
 O         3.334983         0.692356         1.208981
 H         0.491669         2.526214         1.192665
 H         1.432858         2.825962         2.739960
 H         2.130941         3.238743         1.150854
 H         2.482440         0.450525         3.597811
 H         0.691840         0.195084         3.279939
 H         1.978062        -2.047107         2.829357
 H         1.566104        -0.896169        -1.519760
 H         0.032983        -0.149929        -0.971708
 H         1.442913         0.900590        -1.292589
 H         3.323197        -1.395474         0.273713
