19
Iteration:   644
 C         2.641185         2.228768         0.597393
 C         2.331540         0.911744         1.218218
 C         2.682471         0.371763         2.691954
 C         1.980210        -1.028854         2.409078
 O         0.608528        -0.667362         2.180669
 C         1.088268        -0.017782         0.925728
 C         0.079315         0.279050        -0.096330
 C         2.257143        -1.031035         0.847323
 O         3.213942        -0.044790         0.463194
 H         1.943186         3.122492         0.814658
 H         3.645493         2.540713         0.965560
 H         2.797305         1.989523        -0.454646
 H         3.843962         0.407132         2.749998
 H         2.126949         0.767104         3.554618
 H         2.016841        -1.800599         3.100406
 H        -0.636327        -0.511920        -0.123328
 H        -0.548520         1.275644         0.134621
 H         0.404084         0.457251        -1.150149
 H         2.091481        -1.979735         0.331976
