19
Iteration:  4491
 C         1.355258         2.354471         1.472551
 C         1.919953         0.975820         1.570764
 C         1.633700         0.070417         2.907944
 C         2.095262        -1.139120         2.163521
 O         1.038075        -1.351944         1.121603
 C         1.656571        -0.245155         0.465536
 C         0.821050         0.091100        -0.813108
 C         3.093358        -0.562308         1.014026
 O         3.356327         0.808837         1.327182
 H         0.266610         2.209824         1.497359
 H         1.576059         2.928929         2.342612
 H         1.673766         2.754308         0.504506
 H         2.292854         0.527035         3.692773
 H         0.609802         0.118711         3.134207
 H         2.275983        -2.173560         2.519020
 H        -0.025648        -0.580500        -0.644746
 H         0.419424         1.095353        -0.951762
 H         1.269673        -0.284456        -1.798085
 H         4.026530        -1.004350         0.485731
