19
Iteration:  1781charge 0 multiplicity 1
 C         2.563462         2.306864         0.798621
 C         2.282129         0.893156         1.264940
 C         2.591113         0.464567         2.593394
 C         2.003671        -0.937518         2.424243
 O         0.575197        -0.699127         2.119273
 C         1.155626        -0.151475         0.860476
 C         0.140943         0.211026        -0.160063
 C         2.316549        -1.063011         0.858332
 O         3.226694        -0.010747         0.453176
 H         3.528375         2.557564         1.317495
 H         2.541801         2.340203        -0.291869
 H         1.934116         3.052836         1.221047
 H         3.643469         0.283275         2.719496
 H         1.999452         0.917450         3.452562
 H         2.206483        -1.712682         3.105426
 H         0.712404         0.663865        -0.952145
 H        -0.304172        -0.641693        -0.720342
 H        -0.673829         0.629392         0.326627
 H         2.502141        -1.977390         0.323953
