19
Iteration:  3548
 C         1.584188         2.485699         1.619834
 C         1.830263         0.949388         1.549374
 C         1.561486         0.135169         2.878827
 C         2.052385        -1.117028         2.146642
 O         0.989152        -1.532136         1.162117
 C         1.562488        -0.182385         0.416124
 C         1.075674        -0.023549        -0.961351
 C         2.932781        -0.553668         1.069876
 O         3.261410         0.815443         1.322318
 H         0.732751         2.857325         2.154482
 H         2.478348         2.973356         1.920249
 H         1.434520         2.903758         0.616817
 H         2.058829         0.398055         3.841794
 H         0.512250         0.134601         2.932495
 H         2.475585        -1.989246         2.742490
 H         1.607420        -0.754204        -1.663381
 H        -0.003824        -0.027477        -0.825694
 H         1.306965         0.991608        -1.258578
 H         3.778078        -0.909434         0.492724
