19
Iteration:  3094charge 0 multiplicity 1
 C         1.693025         2.457665         1.461314
 C         1.904864         0.988965         1.533304
 C         1.837031         0.289932         2.892062
 C         2.093199        -1.167441         2.194319
 O         0.915530        -1.403934         1.310503
 C         1.486165        -0.315340         0.521245
 C         0.859089        -0.013409        -0.785778
 C         2.854606        -0.597848         0.913712
 O         3.235333         0.730663         1.139101
 H         2.186746         2.883342         0.576437
 H         0.620528         2.632713         1.561808
 H         2.152616         2.974557         2.388862
 H         2.628052         0.642741         3.714060
 H         0.863285         0.497105         3.347371
 H         2.401071        -2.064139         2.722556
 H        -0.261766         0.339374        -0.771973
 H         1.373560         0.871559        -1.232185
 H         0.934340        -0.917507        -1.482280
 H         3.531300        -1.361710         0.552297
