19
Iteration:  3348
 C         1.225398         2.319437         1.436102
 C         1.876827         0.934884         1.547518
 C         1.720991         0.107037         2.862199
 C         2.041556        -1.225387         2.127592
 O         0.967720        -1.292324         1.286820
 C         1.558737        -0.203307         0.548510
 C         1.165721         0.130159        -0.857734
 C         2.918476        -0.609791         0.965509
 O         3.438713         0.811220         1.287802
 H         1.584667         2.902319         0.559711
 H         0.143930         2.084110         1.359130
 H         1.388738         2.971755         2.281853
 H         2.346281         0.466804         3.679390
 H         0.582783         0.066685         3.166654
 H         2.180400        -2.066436         2.801041
 H         0.361459        -0.506027        -1.266387
 H         0.792335         1.206364        -0.977072
 H         2.080603        -0.002434        -1.503556
 H         3.536574        -1.417456         0.489097
