19
Iteration:  3128
 C         1.477134         2.457994         1.440097
 C         1.947522         0.976010         1.549514
 C         1.851461         0.183173         2.891421
 C         2.110658        -1.224158         2.144136
 O         0.845116        -1.200604         1.375117
 C         1.508992        -0.229670         0.528547
 C         0.921377        -0.066660        -0.806023
 C         2.907310        -0.590329         0.871328
 O         3.344582         0.681393         1.195840
 H         0.998435         2.768787         0.529996
 H         0.681180         2.688614         2.208698
 H         2.390867         3.119493         1.661218
 H         2.615360         0.635388         3.698210
 H         0.830742         0.111949         3.195697
 H         2.445122        -2.166540         2.585008
 H         0.370286         0.983177        -0.923233
 H         1.750763        -0.247877        -1.523226
 H         0.210499        -0.881635        -0.996763
 H         3.562055        -1.336247         0.339648
