19
Iteration:  3531
 C         1.494640         2.487585         1.436728
 C         1.823116         1.010595         1.613961
 C         1.625385         0.102597         2.836149
 C         2.023572        -1.257746         2.187305
 O         0.996294        -1.424316         1.168333
 C         1.552356        -0.246742         0.512322
 C         1.140066         0.082787        -0.889416
 C         2.953976        -0.567169         1.011701
 O         3.246010         0.811780         1.346341
 H         0.646062         2.706862         2.130407
 H         2.350703         3.014796         1.979695
 H         1.312527         2.779777         0.383829
 H         2.507826         0.420674         3.438109
 H         0.649753        -0.004646         3.407574
 H         2.154231        -2.212242         2.699558
 H         1.737542        -0.425441        -1.644277
 H         0.095017        -0.217106        -1.100499
 H         1.197471         1.129000        -1.259407
 H         3.695914        -1.292877         0.564419
