19
Iteration:  3802
 C         1.249440         2.326236         1.384819
 C         1.913504         0.984382         1.616388
 C         1.791511         0.100569         2.876602
 C         2.043578        -1.154781         2.143307
 O         0.856219        -1.318307         1.267401
 C         1.559414        -0.129331         0.493508
 C         1.175083         0.192022        -0.822097
 C         2.922405        -0.682682         0.962238
 O         3.385396         0.676353         1.279862
 H         0.165552         2.199862         1.506315
 H         1.707958         3.091389         2.041066
 H         1.485564         2.748653         0.447487
 H         2.522178         0.370135         3.566994
 H         0.809712         0.200848         3.426684
 H         2.257101        -2.091599         2.591867
 H         1.111523        -0.679576        -1.441053
 H         0.179841         0.671245        -0.782386
 H         1.929620         0.953681        -1.166196
 H         3.690545        -1.390938         0.534654
