19
Iteration:  4774
 C         1.257289         2.318946         1.469569
 C         1.752329         0.904036         1.603846
 C         1.762296         0.074642         2.864807
 C         2.308932        -1.227230         2.186904
 O         1.088759        -1.523226         1.212386
 C         1.604673        -0.321133         0.545259
 C         0.904062         0.275249        -0.806746
 C         3.043575        -0.468064         0.905118
 O         3.193246         0.891904         1.264071
 H         0.410936         2.574347         2.134747
 H         2.019392         2.936555         1.846496
 H         0.986409         2.525739         0.427599
 H         2.356774         0.740301         3.515634
 H         0.712220        -0.063250         3.136214
 H         2.548735        -2.206470         2.555468
 H         0.130498        -0.351901        -1.133912
 H         0.633434         1.354585        -0.819926
 H         1.689500         0.314026        -1.621919
 H         3.990082        -0.966073         0.450604
