19
Iteration:  1298charge 0 multiplicity 1
 C         2.464223         2.196412         0.746311
 C         2.428253         0.874434         1.129902
 C         2.641522         0.482450         2.614732
 C         2.086751        -0.929419         2.411104
 O         0.608477        -0.650645         2.096436
 C         1.070140        -0.095738         0.933843
 C         0.087796         0.397425        -0.049158
 C         2.235912        -1.040182         0.848439
 O         3.257475        -0.244782         0.442824
 H         1.554822         2.566000         1.158998
 H         3.314864         2.645380         1.217847
 H         2.543510         2.431802        -0.301190
 H         3.763274         0.668904         2.953914
 H         2.088189         0.966027         3.357919
 H         2.284427        -1.655726         3.130919
 H        -0.838972        -0.099059         0.287255
 H         0.003492         1.475432        -0.074549
 H         0.514342         0.158246        -1.090052
 H         2.308921        -2.026546         0.444851
