19
Iteration:  4258charge 0 multiplicity 1
 C         1.358768         2.388257         1.523109
 C         1.944203         0.987389         1.543673
 C         1.768057         0.150253         2.861467
 C         2.045225        -1.230168         2.152619
 O         0.860093        -1.235769         1.243420
 C         1.553047        -0.223781         0.494165
 C         1.043024         0.030088        -0.908407
 C         2.976379        -0.614323         0.982885
 O         3.367771         0.719013         1.276942
 H         0.251213         2.406226         1.456646
 H         1.678287         2.705922         2.555686
 H         1.722826         3.041582         0.743560
 H         2.531928         0.534522         3.559099
 H         0.831740         0.259862         3.542546
 H         2.168760        -2.031139         2.856277
 H        -0.003587         0.388187        -1.035589
 H         1.741343         0.720900        -1.468543
 H         0.998751        -0.935555        -1.517190
 H         3.754231        -1.232202         0.522547
