19
Iteration:  1011charge 0 multiplicity 1
 C         2.590627         2.291703         0.772195
 C         2.387391         0.828634         1.223392
 C         2.690337         0.463975         2.652653
 C         2.026524        -0.967901         2.423656
 O         0.611645        -0.627714         2.179467
 C         1.056159        -0.109582         0.949021
 C         0.100443         0.338841        -0.160065
 C         2.236925        -1.094620         0.817754
 O         3.203316        -0.159399         0.387771
 H         2.561423         3.079647         1.611018
 H         3.496371         2.439288         0.239459
 H         1.898534         2.544053        -0.072819
 H         3.715175         0.393969         2.922654
 H         2.073772         1.182405         3.382740
 H         2.110942        -1.698044         3.323957
 H        -0.846545        -0.229416        -0.203673
 H        -0.280238         1.398019        -0.215570
 H         0.495939         0.041455        -1.142592
 H         2.241374        -2.139501         0.279090
