19
Iteration:   787
 C         2.597772         2.270872         0.779444
 C         2.350820         0.828482         1.125424
 C         2.641694         0.481749         2.674571
 C         2.072982        -0.957372         2.459247
 O         0.569003        -0.607330         2.223185
 C         1.101177        -0.158789         0.894565
 C         0.029094         0.324433        -0.136918
 C         2.268281        -1.113330         0.863974
 O         3.235949        -0.147373         0.338587
 H         2.266198         3.026164         1.462720
 H         3.725569         2.458312         0.663207
 H         2.373366         2.547092        -0.276138
 H         3.759741         0.556314         3.159025
 H         1.929262         1.131128         3.159574
 H         2.196116        -1.719846         3.303268
 H        -0.972764        -0.198863        -0.061695
 H        -0.116535         1.445984        -0.058618
 H         0.485911         0.201634        -1.231839
 H         2.295548        -2.056734         0.309558
