19
Iteration:  3405
 C         1.528152         2.526822         1.511909
 C         1.803707         0.982566         1.608800
 C         1.597926         0.052780         2.846461
 C         2.118737        -1.233065         2.133572
 O         1.031294        -1.405706         1.118461
 C         1.531523        -0.193865         0.491788
 C         1.051551        -0.028314        -0.919901
 C         2.981829        -0.521960         0.979465
 O         3.258014         0.819434         1.417933
 H         0.894256         2.697510         0.650664
 H         0.973707         2.992443         2.300019
 H         2.485014         2.978430         1.497419
 H         2.062243         0.442232         3.740181
 H         0.493315         0.030836         3.187691
 H         2.273699        -2.097062         2.810570
 H         0.460630        -0.927518        -0.983223
 H         0.317280         0.813483        -1.163511
 H         1.795794        -0.039934        -1.764030
 H         3.841242        -1.087470         0.653995
