19
Iteration:  2518charge 0 multiplicity 1
 C         1.943453         2.476346         1.110793
 C         2.157838         0.988090         1.382434
 C         2.255403         0.257325         2.925053
 C         2.072726        -1.135528         2.249151
 O         0.679327        -0.958261         1.782703
 C         1.262826        -0.193143         0.712678
 C         0.533630         0.074709        -0.529360
 C         2.651586        -0.928953         0.799018
 O         3.319861         0.385716         0.799238
 H         2.692737         2.670833         0.240602
 H         0.873159         2.534589         0.778242
 H         1.978747         3.008145         2.057462
 H         3.204230         0.601546         3.196395
 H         1.437523         0.213058         3.735791
 H         2.252588        -2.091056         2.722609
 H         1.160549        -0.072219        -1.381542
 H        -0.439067        -0.340632        -0.630931
 H         0.560337         1.166563        -0.712156
 H         3.335277        -1.556234         0.228072
