19
Iteration:  4256
 C         1.390024         2.396709         1.539562
 C         1.916435         0.996346         1.516192
 C         1.761783         0.158692         2.878726
 C         2.046578        -1.245331         2.157232
 O         0.849900        -1.243689         1.250155
 C         1.571150        -0.218042         0.490794
 C         1.058714         0.031685        -0.904333
 C         2.968640        -0.600420         0.972663
 O         3.352380         0.721894         1.266358
 H         0.224640         2.382631         1.460646
 H         1.682629         2.738438         2.596324
 H         1.734204         3.019622         0.709316
 H         2.580198         0.475769         3.621719
 H         0.822343         0.201386         3.555932
 H         2.174647        -2.021713         2.852479
 H         0.008980         0.274167        -1.029140
 H         1.728420         0.701394        -1.449796
 H         1.094408        -0.951600        -1.506751
 H         3.737737        -1.262211         0.449622
