19
Iteration:  2691charge 0 multiplicity 1
 C         1.749783         2.447461         1.245787
 C         2.186292         0.973985         1.427512
 C         2.087930         0.354640         2.825935
 C         2.050052        -1.155402         2.285337
 O         0.720258        -1.059772         1.626891
 C         1.323075        -0.268325         0.639967
 C         0.641539         0.138055        -0.617278
 C         2.762830        -0.875607         0.943415
 O         3.418196         0.428482         0.799782
 H         1.442513         2.783146         2.309993
 H         2.614539         3.085537         1.126443
 H         0.862088         2.477346         0.658424
 H         3.102266         0.379551         3.220262
 H         1.271466         0.496034         3.659017
 H         2.274684        -1.933248         3.008768
 H         0.728841         1.227154        -0.657957
 H         0.982770        -0.418558        -1.544643
 H        -0.511147        -0.243386        -0.578352
 H         2.982599        -1.691654         0.294770
