19
Iteration:  2350charge 0 multiplicity 1
 C         2.074816         2.491275         1.086501
 C         2.205116         0.931429         1.311749
 C         2.376950         0.313745         2.764372
 C         2.014134        -1.050521         2.327417
 O         0.649529        -0.945341         1.813535
 C         1.245708        -0.155841         0.782101
 C         0.390828         0.086900        -0.480602
 C         2.553199        -0.937581         0.889131
 O         3.371525         0.237254         0.716050
 H         1.088303         2.828536         1.407122
 H         2.779002         3.093023         1.720966
 H         2.250105         2.862636         0.006783
 H         3.456649         0.462559         3.134239
 H         1.606733         0.572138         3.434023
 H         2.193908        -1.912420         3.004745
 H         0.013302        -0.832424        -0.870168
 H        -0.395167         0.840395        -0.267367
 H         1.094632         0.508899        -1.148241
 H         2.820644        -1.812175         0.275246
