19
Iteration:  3753
 C         1.601394         2.513387         1.726597
 C         1.782498         1.036678         1.575622
 C         1.669695         0.161205         2.809626
 C         2.029402        -1.190963         2.156934
 O         0.947795        -1.377673         1.138757
 C         1.553316        -0.299278         0.452919
 C         1.132412        -0.106909        -0.978726
 C         2.921212        -0.534233         1.036895
 O         3.234398         0.809802         1.282437
 H         0.700994         2.734422         2.324376
 H         2.532190         2.847347         2.216015
 H         1.581846         3.150590         0.769355
 H         2.410940         0.565879         3.593446
 H         0.688026         0.118364         3.291152
 H         2.206798        -2.172603         2.720484
 H         1.089109        -1.110871        -1.450546
 H         0.039416        -0.030879        -0.948634
 H         1.680555         0.591066        -1.581915
 H         3.455951        -1.121964         0.302109
