19
Iteration:   685
 C         2.609190         2.292909         0.726941
 C         2.403803         0.866747         1.120879
 C         2.608977         0.489787         2.578246
 C         2.001026        -0.956979         2.420780
 O         0.650174        -0.629988         2.176223
 C         1.108937        -0.100113         0.870757
 C         0.002945         0.344375        -0.100071
 C         2.186883        -1.145297         0.903336
 O         3.313080        -0.228810         0.442558
 H         2.402337         2.983063         1.641994
 H         3.618916         2.585903         0.617952
 H         2.001035         2.784057        -0.035299
 H         3.631982         0.601600         3.019837
 H         1.761926         1.089763         3.181240
 H         2.150982        -1.684593         3.171513
 H        -0.285924        -0.501932        -0.735535
 H        -0.880756         0.757796         0.575787
 H         0.354581         1.106266        -0.761468
 H         2.343512        -2.053340         0.509708
