19
Iteration:  1627
 C         2.558222         2.282002         0.746680
 C         2.500903         0.837226         1.251375
 C         2.730484         0.455410         2.625049
 C         1.962983        -0.927333         2.418003
 O         0.615521        -0.632376         2.072524
 C         1.126487        -0.045515         0.871780
 C         0.055083         0.230438        -0.072615
 C         2.222380        -1.107487         0.796799
 O         3.162621        -0.108942         0.490307
 H         1.422539         2.581603         0.849535
 H         3.099460         2.986765         1.532669
 H         2.927313         2.459798        -0.287333
 H         3.899656         0.263089         2.794541
 H         2.388355         1.067788         3.458423
 H         2.064631        -1.661805         3.214377
 H        -0.960850         0.365775         0.482870
 H         0.286479         1.096309        -0.745774
 H        -0.040230        -0.559739        -0.897806
 H         2.151933        -2.001135         0.287636
