19
Iteration:  4454
 C         1.342671         2.326708         1.327849
 C         1.862612         0.849381         1.605850
 C         1.713793         0.094746         2.925746
 C         2.203576        -1.195707         2.131554
 O         1.022317        -1.427281         1.226337
 C         1.479279        -0.195421         0.517455
 C         0.953755         0.240629        -0.822645
 C         3.051751        -0.554224         0.990004
 O         3.283147         0.777422         1.305553
 H         0.247917         2.370431         1.409601
 H         1.755119         3.176760         1.973526
 H         1.590709         2.826741         0.348459
 H         2.330686         0.496739         3.739956
 H         0.669498         0.023088         3.406736
 H         2.541230        -1.997001         2.808200
 H         0.623516        -0.589167        -1.467966
 H         0.147562         0.971596        -0.626749
 H         1.777917         0.796835        -1.233280
 H         3.727917        -1.039110         0.360160
