19
Iteration:  4655charge 0 multiplicity 1
 C         1.383726         2.458264         1.476563
 C         1.761259         0.985173         1.624107
 C         1.702559         0.052297         2.900323
 C         2.280438        -1.233371         2.130354
 O         1.089541        -1.522134         1.216941
 C         1.517423        -0.226246         0.452223
 C         0.867350         0.116664        -0.834132
 C         3.031779        -0.484915         0.882769
 O         3.279777         0.835603         1.342604
 H         0.230070         2.705614         1.259805
 H         1.444971         3.053764         2.407213
 H         1.905938         3.004393         0.617330
 H         2.246573         0.589725         3.716664
 H         0.669328        -0.227261         3.072988
 H         2.520092        -2.169808         2.729899
 H         1.693339         0.263551        -1.442793
 H         0.297412        -0.755507        -1.174529
 H         0.197335         1.015847        -0.763810
 H         3.943003        -1.073804         0.376497
