19
Iteration:   978charge 0 multiplicity 1
 C         2.657848         2.243341         0.677103
 C         2.349758         0.853787         1.099554
 C         2.595362         0.502293         2.626998
 C         2.035525        -0.994555         2.430152
 O         0.608336        -0.673851         2.171723
 C         1.062934        -0.129261         0.945534
 C         0.091764         0.404310        -0.033812
 C         2.301857        -1.138962         0.839838
 O         3.185061        -0.129659         0.425489
 H         2.477031         3.058050         1.404487
 H         3.703341         2.235494         0.533245
 H         2.028340         2.641297        -0.162489
 H         3.591690         0.641240         2.911188
 H         1.921391         1.167802         3.304311
 H         2.067490        -1.751273         3.265872
 H        -0.366656        -0.465696        -0.495905
 H        -0.616219         1.112796         0.466092
 H         0.710126         0.908551        -0.761724
 H         2.213373        -2.155799         0.294427
