19
Iteration:  3508
 C         1.313329         2.295844         1.395621
 C         1.855257         0.967096         1.574621
 C         1.732643         0.118814         2.959514
 C         2.023732        -1.208694         2.131731
 O         0.838049        -1.259597         1.205580
 C         1.636418        -0.177006         0.486853
 C         1.167002         0.145373        -0.878670
 C         2.989756        -0.593877         0.974036
 O         3.349589         0.720820         1.384722
 H         0.278243         2.346383         1.773002
 H         1.923937         3.114268         1.873421
 H         1.237506         2.329837         0.284788
 H         2.497877         0.537651         3.712091
 H         0.716175         0.020539         3.340542
 H         2.400849        -2.139647         2.608827
 H         1.837110        -0.301193        -1.658693
 H         0.181639        -0.227488        -1.122732
 H         1.186345         1.200645        -1.211935
 H         3.703576        -1.386128         0.574693
