19
Iteration:  4685
 C         1.338084         2.360348         1.673675
 C         1.823205         0.945175         1.598590
 C         1.765568         0.109248         2.875462
 C         2.149626        -1.146288         2.179631
 O         1.024286        -1.471448         1.205316
 C         1.562905        -0.207784         0.436140
 C         1.025874        -0.010367        -0.863284
 C         2.979992        -0.482596         0.885087
 O         3.244024         0.920650         1.171004
 H         0.283184         2.458257         1.486041
 H         1.287634         2.596332         2.736999
 H         2.010853         3.108615         1.173230
 H         2.467137         0.508074         3.679314
 H         0.773648         0.019465         3.307832
 H         2.423888        -2.139683         2.618700
 H         1.722203        -0.331290        -1.650182
 H         0.160315        -0.667594        -0.923507
 H         0.698031         1.047788        -1.003732
 H         3.724319        -1.154830         0.458708
