19
Iteration:  3132charge 0 multiplicity 1
 C         1.443387         2.430230         1.442960
 C         1.993448         0.984093         1.542100
 C         1.900874         0.204336         2.905526
 C         2.080547        -1.184580         2.120776
 O         0.844398        -1.182025         1.350206
 C         1.492046        -0.235836         0.533968
 C         0.943709        -0.075880        -0.791271
 C         2.907043        -0.640123         0.892888
 O         3.327414         0.678636         1.209435
 H         0.894945         2.687199         0.503598
 H         0.776575         2.720169         2.313954
 H         2.282225         3.083870         1.606825
 H         2.488798         0.629869         3.628298
 H         0.813994         0.092840         3.207598
 H         2.415315        -2.183665         2.465638
 H         0.559719         0.888268        -0.842172
 H         1.659971        -0.293949        -1.584243
 H         0.121194        -0.760422        -0.913364
 H         3.690337        -1.152794         0.235973
