19
Iteration:  4621
 C         1.292431         2.237946         1.423909
 C         1.886968         0.910805         1.651276
 C         1.775142         0.083252         2.938171
 C         2.141141        -1.246565         2.071748
 O         1.036101        -1.309689         1.105427
 C         1.586520        -0.193503         0.479200
 C         0.834172         0.106410        -0.783564
 C         3.055130        -0.492691         0.957957
 O         3.340614         0.866264         1.365420
 H         0.148341         2.113786         1.576319
 H         1.763178         3.122345         1.865501
 H         1.333159         2.379799         0.273011
 H         2.459277         0.447295         3.769463
 H         0.763985         0.153287         3.303676
 H         2.222580        -2.048331         2.839035
 H         1.256284         0.953940        -1.285844
 H         0.973876        -0.765795        -1.399703
 H        -0.247004         0.277919        -0.608784
 H         4.035570        -0.962112         0.605579
