19
Iteration:  3791
 C         1.344789         2.386345         1.493747
 C         1.859088         0.935825         1.528606
 C         1.771332         0.154693         2.877204
 C         2.029565        -1.267950         2.207204
 O         0.892663        -1.297839         1.288412
 C         1.578548        -0.206092         0.547449
 C         1.197762         0.169362        -0.903826
 C         2.885708        -0.627174         0.956139
 O         3.354989         0.711490         1.230754
 H         0.272107         2.376057         1.763210
 H         1.739818         3.090641         2.245555
 H         1.339037         2.681938         0.488833
 H         2.358669         0.494304         3.669819
 H         0.674607         0.040199         3.088305
 H         2.301771        -2.074337         2.841657
 H         1.223102        -0.666345        -1.588856
 H         0.202589         0.643893        -0.908038
 H         1.919335         0.917084        -1.347795
 H         3.591435        -1.223167         0.301964
