19
Iteration:  3308charge 0 multiplicity 1
 C         1.295498         2.386874         1.421552
 C         1.743041         0.971147         1.576624
 C         1.815449         0.112923         2.906696
 C         2.066857        -1.207354         2.212414
 O         0.997164        -1.337094         1.258204
 C         1.538706        -0.205281         0.517278
 C         1.199579         0.092633        -0.895734
 C         2.917340        -0.633772         0.998797
 O         3.236982         0.794389         1.234158
 H         2.310850         2.847332         1.362343
 H         0.808342         2.802785         0.566457
 H         0.896691         2.711899         2.363551
 H         2.718868         0.315028         3.418320
 H         1.073048         0.091376         3.711170
 H         2.179753        -2.263405         2.501063
 H         0.550667        -0.605422        -1.294703
 H         0.640469         1.037473        -0.941031
 H         2.125809         0.195696        -1.478306
 H         3.608641        -1.213542         0.400646
