19
Iteration:  2576
 C         1.988172         2.507971         1.261347
 C         2.131196         0.965513         1.389724
 C         2.127468         0.306194         2.738511
 C         2.036274        -1.120146         2.315928
 O         0.674804        -1.032720         1.701668
 C         1.375079        -0.313233         0.583961
 C         0.436459         0.038273        -0.537901
 C         2.752491        -0.858553         0.883345
 O         3.398816         0.422851         0.828175
 H         1.518324         2.744100         0.321954
 H         1.405221         3.019831         2.032125
 H         3.005346         2.949051         1.083773
 H         2.979589         0.658356         3.367793
 H         1.236129         0.416042         3.262459
 H         2.185011        -2.002472         2.984336
 H        -0.244536        -0.802130        -0.833174
 H        -0.205400         0.841388        -0.074056
 H         0.871884         0.580353        -1.306131
 H         3.484346        -1.524618         0.399381
