19
Iteration:  4313
 C         1.420900         2.339973         1.312525
 C         1.873083         0.963925         1.621024
 C         1.720616         0.067223         2.867910
 C         2.090531        -1.252799         2.100309
 O         0.955420        -1.345977         1.227020
 C         1.589632        -0.267548         0.517770
 C         0.963694         0.223036        -0.746069
 C         2.990549        -0.559332         1.018072
 O         3.324942         0.778658         1.312047
 H         0.314509         2.321958         1.280663
 H         1.882957         3.146406         1.968195
 H         1.776045         2.579325         0.292332
 H         2.277527         0.525847         3.697683
 H         0.640971        -0.039165         3.307912
 H         2.273073        -1.963610         2.913142
 H         1.001940         1.318556        -0.978425
 H         1.487851        -0.185612        -1.682320
 H        -0.044360        -0.197181        -0.893569
 H         3.704701        -1.164517         0.511669
