19
Iteration:   936charge 0 multiplicity 1
 C         2.616962         2.255110         0.671085
 C         2.463025         0.853346         1.212814
 C         2.748989         0.300673         2.660813
 C         1.934107        -0.989679         2.402572
 O         0.611348        -0.409631         2.130138
 C         1.129666         0.013975         0.914754
 C        -0.066391         0.183605        -0.038387
 C         2.232374        -1.104783         0.810004
 O         3.264926        -0.127691         0.470481
 H         1.717358         2.921783         0.872181
 H         3.436900         2.822560         1.038435
 H         2.410324         2.266761        -0.408074
 H         3.763282         0.290057         2.809963
 H         2.227215         0.729893         3.513552
 H         1.995838        -1.873518         3.144610
 H        -0.171847        -0.653745        -0.692896
 H        -1.047520         0.411505         0.469657
 H         0.089869         0.966571        -0.807134
 H         2.425681        -1.989425         0.189732
