19
Iteration:   508
 C         2.678751         2.252379         0.654444
 C         2.369682         0.893239         1.181519
 C         2.661906         0.370471         2.656495
 C         1.963668        -0.955119         2.428947
 O         0.610987        -0.644073         2.137013
 C         1.106277        -0.113200         0.866633
 C        -0.080849         0.348982        -0.124574
 C         2.340366        -1.087931         0.887860
 O         3.199758        -0.078706         0.491605
 H         2.353441         2.974593         1.342369
 H         3.776249         2.233341         0.396080
 H         2.268896         2.405833        -0.372756
 H         3.726889         0.267515         2.899735
 H         2.306766         1.004114         3.535740
 H         2.105065        -1.688403         3.340546
 H        -0.549994        -0.581192        -0.637624
 H        -0.821671         0.874852         0.498547
 H         0.420441         1.105553        -0.813925
 H         2.526770        -2.102328         0.477945
