19
Iteration:   981charge 0 multiplicity 1
 C         2.654238         2.228607         0.667574
 C         2.339784         0.836051         1.085731
 C         2.569677         0.512194         2.640711
 C         2.041316        -1.017992         2.419134
 O         0.619178        -0.660869         2.180832
 C         1.070553        -0.134857         0.954088
 C         0.114657         0.405265        -0.036488
 C         2.291858        -1.142076         0.850947
 O         3.172398        -0.114954         0.408608
 H         2.509107         3.091144         1.398422
 H         3.771663         2.252441         0.600848
 H         1.988745         2.765863        -0.066747
 H         3.598240         0.676534         2.988741
 H         1.948218         1.132486         3.210845
 H         2.078385        -1.815335         3.287096
 H        -0.396184        -0.429919        -0.478280
 H        -0.546235         1.133524         0.497405
 H         0.708701         0.886517        -0.898090
 H         2.252645        -2.099656         0.386375
