19
Iteration:  4908
 C         1.171577         2.171172         1.510874
 C         1.803197         0.947245         1.638837
 C         1.871571         0.051374         2.911070
 C         2.248911        -1.159239         2.129733
 O         1.129246        -1.403307         1.283837
 C         1.479693        -0.230423         0.509019
 C         1.016224         0.228063        -0.797085
 C         2.969418        -0.489001         0.862024
 O         3.186005         0.835406         1.193480
 H         0.273507         2.033226         0.884821
 H         0.995000         2.868004         2.371938
 H         1.765795         2.739572         0.821615
 H         2.736215         0.430652         3.456072
 H         0.986677         0.092761         3.556829
 H         2.521387        -2.207300         2.504373
 H         0.182258         1.001840        -0.731858
 H         1.908218         0.729806        -1.150835
 H         0.629686        -0.480168        -1.464086
 H         3.816222        -0.913296         0.279533
