19
Iteration:  4870
 C         1.149637         2.417441         1.764182
 C         1.823643         0.990806         1.583810
 C         1.836377         0.052698         2.842696
 C         2.212029        -1.220090         2.067905
 O         1.080434        -1.382439         1.288914
 C         1.499495        -0.267755         0.508281
 C         1.075107        -0.006356        -0.878207
 C         2.955459        -0.490812         0.866162
 O         3.231444         0.904154         1.136639
 H         0.114945         2.105881         1.585283
 H         1.181758         2.779912         2.796727
 H         1.441329         3.101769         0.918086
 H         2.709191         0.355207         3.474929
 H         0.885101        -0.081966         3.387291
 H         2.569217        -2.044687         2.668439
 H         0.358224         0.815174        -0.978748
 H         2.057550         0.289739        -1.368063
 H         0.781598        -0.947673        -1.462819
 H         3.874957        -0.985299         0.443890
