19
Iteration:  3377
 C         1.344661         2.348824         1.535856
 C         1.918131         0.949001         1.555805
 C         1.680624         0.144025         2.822672
 C         2.025908        -1.144680         2.154955
 O         0.994700        -1.290560         1.108908
 C         1.626625        -0.314049         0.399593
 C         0.998551         0.006599        -0.922074
 C         3.005605        -0.565565         1.028958
 O         3.358562         0.827042         1.451687
 H         0.979997         2.608897         0.509601
 H         0.384181         2.431748         2.098135
 H         2.111601         3.073305         1.974029
 H         2.340822         0.433596         3.712288
 H         0.731620         0.226616         3.257255
 H         2.121952        -2.009817         2.824713
 H         0.112170        -0.678042        -1.093323
 H         0.504871         0.949823        -0.877313
 H         1.610385        -0.001372        -1.792651
 H         3.843142        -1.264121         0.842422
