19
Iteration:  3166
 C         1.304770         2.363206         1.458455
 C         1.929482         0.967355         1.501434
 C         1.917835         0.183864         2.934324
 C         1.978175        -1.187429         2.268565
 O         0.909147        -1.271260         1.314487
 C         1.542303        -0.219551         0.517384
 C         0.935531         0.088833        -0.871467
 C         2.939317        -0.629551         0.987163
 O         3.430978         0.678594         1.133116
 H         0.269143         2.461393         0.975239
 H         1.301070         2.780062         2.475327
 H         1.939640         2.897763         0.765486
 H         2.723155         0.511204         3.483582
 H         0.960245         0.434946         3.491364
 H         2.311457        -2.212707         2.546218
 H         1.440220         0.825076        -1.365496
 H         0.994801        -0.781049        -1.533928
 H        -0.115764         0.430724        -0.722526
 H         3.753199        -1.225667         0.510819
