19
Iteration:  3123charge 0 multiplicity 1
 C         1.524340         2.479403         1.456891
 C         1.890332         0.977423         1.557088
 C         1.821854         0.159599         2.876361
 C         2.140790        -1.228340         2.171066
 O         0.855734        -1.233506         1.395314
 C         1.506524        -0.214483         0.540649
 C         0.889722        -0.040797        -0.837011
 C         2.910395        -0.582013         0.860665
 O         3.372796         0.699285         1.176162
 H         1.160270         2.804497         0.434497
 H         0.671017         2.614470         2.097126
 H         2.357043         3.086512         1.681519
 H         2.534556         0.482260         3.557337
 H         0.778094         0.161980         3.313941
 H         2.394531        -2.132607         2.759018
 H         0.332859         0.812523        -1.035907
 H         1.762940        -0.084581        -1.499107
 H         0.281700        -0.956576        -1.053952
 H         3.448473        -1.404563         0.432835
