19
Iteration:  2309charge 0 multiplicity 1
 C         2.221516         2.391275         1.091674
 C         2.266696         1.020215         1.343220
 C         2.332162         0.288529         2.878051
 C         2.075283        -1.054101         2.401632
 O         0.690462        -0.908076         1.848302
 C         1.188993        -0.164636         0.709377
 C         0.302014         0.038392        -0.529674
 C         2.500727        -0.943206         0.882255
 O         3.290658         0.332142         0.592559
 H         1.467179         2.716569         0.365138
 H         2.215406         3.022693         2.014930
 H         3.256204         2.534516         0.786371
 H         3.314134         0.367683         3.421893
 H         1.518161         0.672877         3.472432
 H         2.210275        -1.927333         3.085581
 H         0.865829        -0.501887        -1.283169
 H        -0.699713        -0.369378        -0.367759
 H         0.256122         1.106953        -0.941066
 H         2.820968        -1.882615         0.408997
