19
Iteration:  4652
 C         1.361716         2.454302         1.452059
 C         1.760202         0.978434         1.579655
 C         1.705725         0.021310         2.928124
 C         2.276684        -1.241501         2.083901
 O         1.075225        -1.497758         1.218526
 C         1.540478        -0.227199         0.452212
 C         0.869334         0.120652        -0.798468
 C         3.030421        -0.496886         0.890232
 O         3.289330         0.847075         1.364437
 H         0.306671         2.720242         1.202562
 H         1.572414         3.029079         2.370523
 H         1.815566         3.016673         0.562718
 H         2.284928         0.516725         3.773729
 H         0.653348        -0.198417         3.073552
 H         2.510719        -2.091547         2.828237
 H         1.697645         0.384237        -1.527453
 H         0.353604        -0.800340        -1.046359
 H         0.141710         0.937760        -0.682688
 H         3.886771        -0.976799         0.402891
