19
Iteration:  1637charge 0 multiplicity 1
 C         2.566484         2.254562         0.776980
 C         2.480770         0.899156         1.222311
 C         2.725842         0.399633         2.663867
 C         1.999792        -0.946668         2.475491
 O         0.581136        -0.602659         2.136424
 C         1.081333        -0.128651         0.928989
 C         0.076075         0.230167        -0.179187
 C         2.199849        -1.060751         0.782479
 O         3.206382        -0.053584         0.402230
 H         1.588333         2.806850         0.855554
 H         3.349334         2.854387         1.413271
 H         2.836833         2.221449        -0.293421
 H         3.868800         0.238195         2.971761
 H         2.210546         0.973227         3.419438
 H         2.136657        -1.747221         3.245078
 H        -0.938733         0.431867         0.334999
 H         0.287011         1.079792        -0.833246
 H        -0.205222        -0.734077        -0.684510
 H         2.271451        -1.955438         0.240527
