19
Iteration:   678charge 0 multiplicity 1
 C         2.648230         2.300055         0.708314
 C         2.423664         0.835341         1.111419
 C         2.624690         0.499139         2.605154
 C         2.025444        -0.979402         2.451927
 O         0.603913        -0.650075         2.177948
 C         1.075622        -0.148831         0.848188
 C         0.012215         0.361729        -0.116273
 C         2.234185        -1.124683         0.896506
 O         3.255271        -0.142345         0.461417
 H         2.229214         2.878410         1.529732
 H         3.758671         2.403650         0.551529
 H         2.075376         2.582286        -0.200372
 H         3.675419         0.672114         3.049141
 H         1.960841         0.969327         3.263363
 H         2.089568        -1.660320         3.303552
 H        -0.453136        -0.470024        -0.624088
 H        -0.761817         0.742421         0.642551
 H         0.420728         1.191426        -0.795799
 H         2.298480        -2.121401         0.325640
