19
Iteration:   919
 C         2.581252         2.284440         0.776924
 C         2.417184         0.820807         1.166634
 C         2.670815         0.368774         2.607166
 C         1.970736        -0.946311         2.403351
 O         0.634557        -0.404266         2.246478
 C         1.141544        -0.038968         0.895705
 C         0.075967         0.169183        -0.071845
 C         2.191033        -1.067613         0.796834
 O         3.231185        -0.182224         0.388625
 H         1.622052         2.815695         0.849522
 H         3.344719         2.735766         1.549496
 H         2.940633         2.190150        -0.293785
 H         3.898550         0.229691         2.748397
 H         2.203415         0.995409         3.397247
 H         2.051932        -1.856220         3.022555
 H        -0.205749        -0.712263        -0.799086
 H        -0.793013         0.435333         0.514163
 H         0.092603         0.918836        -0.932299
 H         1.980708        -2.009717         0.228132
