19
Iteration:  1435charge 0 multiplicity 1
 C         2.592375         2.337913         0.602730
 C         2.440578         0.896177         1.245162
 C         2.672385         0.393464         2.716907
 C         2.023716        -1.026307         2.360179
 O         0.540876        -0.600643         2.194233
 C         1.114651        -0.071620         0.936816
 C         0.157905         0.244726        -0.124378
 C         2.222222        -1.071694         0.887607
 O         3.193938        -0.131889         0.446308
 H         2.447087         3.239666         1.231816
 H         3.519096         2.379886         0.057128
 H         1.905250         2.413095        -0.299645
 H         3.627601         0.342131         3.121515
 H         1.860248         0.966392         3.391203
 H         2.236348        -1.915354         2.889835
 H        -0.249315        -0.405091        -0.878962
 H        -0.803676         0.573741         0.362906
 H         0.394854         1.199547        -0.569238
 H         2.187711        -2.071910         0.292599
