19
Iteration:  4308
 C         1.384552         2.338204         1.316948
 C         1.857502         0.940155         1.542406
 C         1.732046         0.083865         2.856703
 C         2.053702        -1.245260         2.148971
 O         0.976545        -1.318229         1.220057
 C         1.573601        -0.234134         0.542569
 C         0.956976         0.231121        -0.715257
 C         3.029684        -0.590386         0.993521
 O         3.361486         0.767773         1.325667
 H         0.264025         2.354713         1.207822
 H         1.764562         3.104173         1.972568
 H         1.697499         2.462432         0.273366
 H         2.206096         0.385781         3.824332
 H         0.747907         0.048180         3.231658
 H         2.248974        -2.155213         2.752569
 H         0.864353         1.283242        -0.921337
 H         1.595885        -0.058833        -1.519908
 H        -0.041847        -0.175130        -0.928513
 H         3.778552        -1.283273         0.486761
