19
Iteration:  4576charge 0 multiplicity 1
 C         1.231596         2.298268         1.638117
 C         1.825599         0.954581         1.574532
 C         1.816311         0.145113         2.849315
 C         2.149440        -1.152575         2.158573
 O         0.926387        -1.361179         1.265743
 C         1.521760        -0.266940         0.541190
 C         1.156230         0.099151        -0.890403
 C         3.036504        -0.589126         0.920327
 O         3.239641         0.825944         1.149988
 H         0.218237         2.355031         2.077843
 H         2.014678         2.877360         2.212683
 H         1.018291         2.981136         0.721628
 H         2.500681         0.547509         3.646046
 H         0.763040         0.108831         3.236492
 H         2.385105        -2.155859         2.594972
 H         0.943498         1.191599        -0.962121
 H         2.050210        -0.150911        -1.424961
 H         0.389390        -0.542314        -1.245650
 H         3.793125        -1.069785         0.325196
