19
Iteration:  3356
 C         1.243788         2.343892         1.454092
 C         1.855909         0.956934         1.576781
 C         1.691763         0.138632         2.846047
 C         2.047375        -1.185358         2.174975
 O         0.956823        -1.288934         1.193738
 C         1.636634        -0.144884         0.518274
 C         1.115950         0.111625        -0.848584
 C         3.012098        -0.671111         1.028530
 O         3.394242         0.722396         1.285389
 H         1.199969         2.811284         0.451825
 H         0.125138         2.188595         1.569346
 H         1.568894         2.946420         2.362832
 H         2.195376         0.689709         3.709671
 H         0.703393         0.075051         3.252712
 H         2.346407        -2.098354         2.688822
 H         0.262194        -0.624027        -1.083969
 H         0.678851         1.079372        -1.055924
 H         1.910892        -0.013985        -1.568697
 H         3.743835        -1.144517         0.344153
