19
Iteration:  1901
 C         2.422799         2.345560         0.855192
 C         2.398229         0.913828         1.241516
 C         2.543490         0.452547         2.710714
 C         1.990441        -1.009434         2.474992
 O         0.592851        -0.787335         2.007673
 C         1.143725        -0.149957         0.797247
 C         0.170080         0.249181        -0.187219
 C         2.388333        -1.015421         0.890922
 O         3.283969        -0.009458         0.441423
 H         2.413503         2.289150        -0.271575
 H         1.508850         2.833169         1.235979
 H         3.290344         2.902727         1.199112
 H         3.532280         0.470291         3.125364
 H         1.772597         1.092061         3.348160
 H         2.153192        -1.863741         3.140572
 H        -0.792780        -0.351625        -0.024382
 H        -0.003162         1.413369        -0.251474
 H         0.610746         0.029067        -1.223001
 H         2.372341        -2.069040         0.472505
