19
Iteration:    40charge 0 multiplicity 1
 C         2.576737         2.177368         0.647741
 C         2.441336         0.859755         1.241192
 C         2.751670         0.398869         2.648372
 C         1.998904        -0.936683         2.404693
 O         0.650396        -0.518150         2.076654
 C         1.159801        -0.006151         0.834644
 C        -0.091825         0.333323        -0.031621
 C         2.199722        -1.097149         0.814441
 O         3.251304        -0.208072         0.526630
 H         1.735658         2.809703         1.070113
 H         3.469391         2.791726         0.893559
 H         2.498761         1.924136        -0.461871
 H         3.901198         0.381573         2.915643
 H         2.287855         0.951793         3.476041
 H         1.979639        -1.715572         3.135621
 H        -0.399751        -0.565988        -0.585821
 H        -0.915073         0.513010         0.767479
 H        -0.001564         1.300367        -0.627480
 H         2.154156        -2.086622         0.388524
