19
Iteration:  1533charge 0 multiplicity 1
 C         2.608952         2.285623         0.753214
 C         2.389962         0.898036         1.238736
 C         2.733362         0.328662         2.656026
 C         2.065527        -0.987495         2.340526
 O         0.625731        -0.509879         2.186387
 C         1.043848        -0.111243         0.926738
 C         0.044833         0.165218        -0.186268
 C         2.217433        -1.083457         0.853109
 O         3.151219        -0.033631         0.470897
 H         1.732405         2.856279         0.998610
 H         3.460397         2.665380         1.263604
 H         2.838907         2.339338        -0.296715
 H         3.741886         0.355872         2.887501
 H         2.147454         1.011434         3.401624
 H         2.202035        -1.749924         3.043207
 H        -0.999070        -0.033087         0.016345
 H         0.063075         1.185868        -0.668321
 H         0.372250        -0.361938        -1.089532
 H         2.325950        -2.077151         0.288799
