19
Iteration:   748
 C         2.584965         2.320815         0.692264
 C         2.350188         0.908779         1.288466
 C         2.806605         0.338100         2.634171
 C         2.029235        -0.983625         2.474187
 O         0.519590        -0.518248         2.222382
 C         1.062035        -0.037700         0.959672
 C         0.188414         0.153283        -0.230546
 C         2.177477        -1.062276         0.814066
 O         3.165612        -0.107190         0.394875
 H         2.622428         3.001075         1.574285
 H         3.578471         2.205075         0.274969
 H         1.829641         2.689716        -0.010310
 H         3.810550         0.388068         2.643884
 H         2.383194         0.854139         3.528561
 H         2.142832        -1.863544         3.150538
 H        -0.312159        -0.775157        -0.583225
 H        -0.618351         0.810555        -0.018730
 H         0.706782         0.623383        -1.030094
 H         2.066198        -2.133233         0.352449
