19
Iteration:  4381charge 0 multiplicity 1
 C         1.388134         2.391209         1.767315
 C         1.901935         1.016416         1.643627
 C         1.727839         0.169011         2.838001
 C         2.076002        -1.140527         2.190895
 O         0.911178        -1.234477         1.230557
 C         1.538989        -0.252033         0.392920
 C         1.028870        -0.182598        -1.043944
 C         2.997258        -0.558580         0.955964
 O         3.352505         0.812458         1.191443
 H         0.447880         2.200417         2.224631
 H         1.970294         2.827768         2.607314
 H         1.264294         3.180632         0.980636
 H         2.314489         0.493654         3.712951
 H         0.764189         0.047262         3.314605
 H         2.041193        -2.185573         2.636069
 H         1.930410        -0.285001        -1.749794
 H         0.387212        -1.087343        -1.297153
 H         0.490069         0.735979        -1.288125
 H         3.850510        -1.039235         0.500028
