19
Iteration:  2017charge 0 multiplicity 1
 C         2.367974         2.378158         0.986583
 C         2.355128         0.909562         1.274731
 C         2.557425         0.413091         2.714382
 C         1.998566        -1.003027         2.382883
 O         0.615883        -0.742160         2.029557
 C         1.144747        -0.151752         0.845213
 C         0.191736         0.106263        -0.327327
 C         2.353068        -1.045760         0.842997
 O         3.308284         0.088383         0.496664
 H         1.378990         2.596095         0.489000
 H         2.619024         2.986160         1.952035
 H         3.099170         2.659169         0.194867
 H         3.671897         0.450561         3.040021
 H         1.881097         0.985844         3.366748
 H         2.124524        -1.751095         3.147614
 H         0.558794         0.975118        -0.893686
 H         0.233854        -0.692606        -1.030015
 H        -0.907199         0.302757        -0.202501
 H         2.500222        -1.894572         0.224435
