19
Iteration:  4331charge 0 multiplicity 1
 C         1.515023         2.419489         1.436120
 C         1.848937         0.974776         1.599676
 C         1.716649         0.106764         2.926437
 C         2.116652        -1.168127         2.194138
 O         0.985985        -1.429610         1.199667
 C         1.494059        -0.241266         0.487188
 C         0.996067         0.073060        -0.904866
 C         2.946758        -0.553217         0.929198
 O         3.256062         0.805962         1.358897
 H         0.393610         2.662900         1.443187
 H         2.055566         3.037499         2.177279
 H         1.825196         2.625697         0.422278
 H         2.340066         0.215389         3.842902
 H         0.738721         0.112658         3.386758
 H         2.506630        -2.108126         2.441960
 H         1.303135         1.056321        -1.221651
 H         1.274467        -0.557462        -1.714555
 H        -0.116703         0.202278        -0.819179
 H         3.779769        -1.166893         0.430637
