19
Iteration:  4143
 C         1.416781         2.359576         1.293862
 C         1.934460         0.964346         1.539586
 C         1.712911         0.175714         2.923132
 C         2.070672        -1.216405         2.161062
 O         0.900853        -1.305320         1.154076
 C         1.538465        -0.153792         0.537429
 C         0.995487         0.195684        -0.784689
 C         2.966367        -0.656916         1.022555
 O         3.390380         0.622321         1.368103
 H         0.443561         2.616310         1.763727
 H         2.121500         3.159384         1.569861
 H         1.271583         2.578898         0.158295
 H         2.445017         0.648791         3.669226
 H         0.713884         0.130922         3.353524
 H         2.103496        -2.179367         2.793910
 H         0.995023        -0.656334        -1.473268
 H        -0.039327         0.516344        -0.578962
 H         1.585069         0.936785        -1.231232
 H         3.668034        -1.405346         0.643642
