19
Iteration:  2127charge 0 multiplicity 1
 C         2.385890         2.390835         1.010656
 C         2.273952         0.974857         1.264022
 C         2.450858         0.360365         2.732891
 C         2.035419        -0.994982         2.270869
 O         0.660363        -0.786618         2.003737
 C         1.088097        -0.154470         0.751639
 C         0.129194         0.032766        -0.373280
 C         2.453428        -1.012929         0.833626
 O         3.341647         0.161713         0.648632
 H         2.259162         3.025313         1.964799
 H         3.468346         2.687039         0.722607
 H         1.686795         2.608639         0.198870
 H         3.497954         0.513802         3.056857
 H         1.864922         0.819808         3.608067
 H         2.263466        -1.763065         3.035722
 H        -0.073834        -0.963759        -0.794636
 H        -0.734199         0.591960        -0.031065
 H         0.681759         0.697991        -1.118153
 H         2.819294        -1.938313         0.372280
