19
Iteration:  4736
 C         1.154702         2.238614         1.637432
 C         1.890685         0.920819         1.666695
 C         1.853309         0.145107         2.935192
 C         2.223131        -1.205133         2.105223
 O         0.979855        -1.319723         1.196993
 C         1.492991        -0.133823         0.474705
 C         1.006581        -0.009968        -0.915779
 C         3.020912        -0.466371         0.872589
 O         3.320037         0.855516         1.255465
 H         0.093402         1.891784         1.690920
 H         1.425262         3.037125         2.438769
 H         1.360238         2.730599         0.684539
 H         2.649151         0.405999         3.639062
 H         0.915349         0.242592         3.518435
 H         2.333921        -2.223965         2.565157
 H         0.878505        -1.119431        -1.287825
 H         0.018290         0.459498        -1.042132
 H         1.787787         0.432787        -1.538590
 H         3.623068        -0.851050         0.116633
