19
Iteration:   835
 C         2.522516         2.251165         0.592021
 C         2.516154         0.871913         1.249720
 C         2.703314         0.384854         2.728565
 C         1.974983        -0.990821         2.373784
 O         0.634936        -0.553236         2.171400
 C         1.122046        -0.066275         0.930774
 C        -0.074822         0.318455        -0.104680
 C         2.194048        -1.062124         0.791669
 O         3.350576        -0.168373         0.478264
 H         1.516081         2.678658         0.649028
 H         3.081832         2.992284         1.108067
 H         2.938249         2.352799        -0.371010
 H         3.658999         0.430453         2.936824
 H         2.063199         0.833699         3.504096
 H         1.987300        -1.886617         2.934795
 H        -0.953045        -0.216226         0.332348
 H        -0.262100         1.366552        -0.087213
 H         0.121057         0.073783        -1.094585
 H         2.159049        -2.130389         0.294775
