19
Iteration:   240
 C         2.472433         2.352693         0.795303
 C         2.449903         0.827004         1.171182
 C         2.701419         0.344455         2.604934
 C         1.965203        -1.021621         2.339317
 O         0.735446        -0.417501         2.173569
 C         1.139873         0.010813         0.849888
 C         0.041234         0.238985        -0.105926
 C         2.155650        -1.097148         0.871941
 O         3.252660        -0.243167         0.478671
 H         1.536343         2.852244         1.081700
 H         3.448538         2.875243         0.961956
 H         2.378889         2.451561        -0.301749
 H         3.786062         0.345206         2.772133
 H         2.008408         0.775105         3.442212
 H         2.025756        -1.958312         2.987818
 H        -0.642858        -0.638594         0.084419
 H        -0.464306         1.274864         0.367669
 H         0.453533         0.174526        -1.085491
 H         2.126621        -2.004696         0.275181
