19
Iteration:  3890charge 0 multiplicity 1
 C         1.679875         2.501931         1.684067
 C         1.763862         1.017487         1.580068
 C         1.595160         0.127507         2.905558
 C         2.052794        -1.125204         2.161796
 O         0.969762        -1.448021         1.220705
 C         1.560010        -0.224008         0.423954
 C         1.034304        -0.091242        -0.970706
 C         2.940132        -0.521224         0.987391
 O         3.259522         0.766527         1.192547
 H         0.622039         2.774764         1.939385
 H         2.351161         2.837111         2.552969
 H         1.924808         3.028783         0.789054
 H         2.253966         0.659015         3.489945
 H         0.547861         0.086300         3.358906
 H         2.251801        -2.059306         2.683195
 H         1.130678        -0.864915        -1.653358
 H        -0.014868         0.201890        -0.978451
 H         1.674595         0.742557        -1.325210
 H         3.656454        -1.286757         0.597675
