19
Iteration:  4135
 C         1.440646         2.365813         1.261163
 C         1.910101         0.961089         1.530157
 C         1.738597         0.195301         2.913431
 C         2.046316        -1.244519         2.244813
 O         0.878112        -1.339986         1.195994
 C         1.542550        -0.164012         0.524692
 C         1.039481         0.211955        -0.788652
 C         2.905987        -0.677746         0.955319
 O         3.355195         0.669331         1.355315
 H         0.420903         2.574413         1.711273
 H         2.162038         3.009286         1.784979
 H         1.421353         2.601884         0.200877
 H         2.553940         0.323088         3.681610
 H         0.835245         0.191403         3.474641
 H         2.271328        -2.221413         2.666005
 H         1.283478        -0.602294        -1.496049
 H         0.018711         0.529801        -0.805377
 H         1.534217         1.161654        -1.026933
 H         3.862712        -1.175140         0.635115
