19
Iteration:  4362charge 0 multiplicity 1
 C         1.461826         2.466161         1.747158
 C         1.859178         1.033675         1.501762
 C         1.687008         0.105312         2.827029
 C         2.077336        -1.169732         2.104467
 O         0.923003        -1.315632         1.198664
 C         1.565371        -0.209808         0.503628
 C         1.064622        -0.178539        -0.897059
 C         2.964586        -0.552421         0.936684
 O         3.288135         0.837536         1.274847
 H         0.375329         2.489541         1.930718
 H         2.151978         2.920249         2.389931
 H         1.683763         2.942941         0.802597
 H         2.387440         0.346140         3.669304
 H         0.673984         0.163853         3.166350
 H         2.506896        -2.062085         2.592713
 H         1.726542         0.144879        -1.695161
 H         0.592262        -1.088924        -1.248366
 H         0.196696         0.521969        -0.969483
 H         3.750681        -1.216542         0.436433
