19
Iteration:  4080charge 0 multiplicity 1
 C         1.462117         2.480452         1.712584
 C         1.949446         1.047391         1.545788
 C         1.756813         0.218070         2.811261
 C         1.996768        -1.153739         2.149405
 O         0.855981        -1.272123         1.272469
 C         1.495615        -0.158603         0.492976
 C         1.113878        -0.161270        -0.925228
 C         2.838361        -0.647886         0.917905
 O         3.403732         0.690209         1.220325
 H         0.509997         2.438123         1.167915
 H         1.378496         2.703006         2.758196
 H         2.199076         3.072357         1.185560
 H         2.587312         0.468495         3.529707
 H         0.772512         0.142909         3.152778
 H         2.030222        -2.071543         2.746003
 H         1.461264        -0.930613        -1.654779
 H         0.035839        -0.146347        -0.957709
 H         1.447373         0.790915        -1.327483
 H         3.649940        -1.203639         0.394922
