19
Iteration:  1848
 C         2.437573         2.304575         0.841734
 C         2.374951         0.893576         1.243156
 C         2.643777         0.367471         2.738309
 C         1.980314        -1.003993         2.433374
 O         0.607805        -0.645613         2.092368
 C         1.096267        -0.058177         0.775860
 C         0.121075         0.191461        -0.288348
 C         2.395072        -1.052476         0.873154
 O         3.230639         0.015943         0.478548
 H         3.312589         2.489963         0.184358
 H         1.508638         2.651442         0.431174
 H         2.854268         2.833453         1.708694
 H         3.687753         0.191394         2.840413
 H         2.238578         0.937230         3.689021
 H         2.081487        -1.704921         3.277685
 H         0.201754        -0.720648        -0.868712
 H        -0.979332         0.116372         0.007235
 H         0.123526         1.098631        -0.846368
 H         2.533961        -2.085954         0.373641
