19
Iteration:   899
 C         2.621706         2.337893         0.817879
 C         2.453198         0.845344         1.141639
 C         2.784821         0.420000         2.552379
 C         2.074051        -0.944441         2.464633
 O         0.611469        -0.552200         2.207876
 C         0.994912        -0.063061         0.934395
 C         0.042009         0.280382        -0.189201
 C         2.179652        -1.135963         0.892530
 O         3.121324        -0.196522         0.350064
 H         1.662074         2.698774         0.859504
 H         3.123969         2.775197         1.691807
 H         3.196184         2.521586        -0.067024
 H         3.898404         0.364184         2.809777
 H         2.235763         1.090329         3.271565
 H         2.094189        -1.484016         3.354930
 H        -0.140560        -0.756053        -0.691397
 H        -0.867525         0.741270         0.109433
 H         0.592699         0.852456        -0.955903
 H         2.237713        -2.271403         0.655972
