19
Iteration:  4239
 C         1.502428         2.452387         1.593086
 C         1.866107         0.947605         1.624082
 C         1.770039         0.079382         2.869566
 C         2.010411        -1.127137         2.161342
 O         0.885197        -1.287680         1.264971
 C         1.472069        -0.193379         0.532554
 C         1.225065        -0.081826        -0.921924
 C         2.878526        -0.624974         0.931086
 O         3.258626         0.789762         1.182983
 H         0.470344         2.671159         1.606486
 H         1.958545         2.944785         2.438035
 H         1.927726         2.984389         0.727735
 H         2.460387         0.539944         3.538224
 H         0.777782         0.155595         3.305478
 H         2.273630        -2.155036         2.527760
 H         0.103149        -0.122724        -1.009319
 H         1.382329         0.973776        -1.248324
 H         1.652600        -0.854906        -1.531647
 H         3.574710        -1.152789         0.338371
