19
Iteration:   903
 C         2.617937         2.290870         0.825137
 C         2.440675         0.848925         1.125803
 C         2.785008         0.425899         2.582825
 C         2.046489        -0.954640         2.447026
 O         0.610216        -0.519219         2.214228
 C         1.037411        -0.034406         0.919150
 C         0.033109         0.242022        -0.193070
 C         2.168987        -1.140401         0.889835
 O         3.151732        -0.193726         0.346494
 H         1.562323         2.733887         0.864708
 H         3.173184         2.822333         1.567190
 H         3.194906         2.598246        -0.045846
 H         3.785405         0.463911         2.765934
 H         2.248579         1.050220         3.307064
 H         2.111052        -1.668459         3.316668
 H        -0.112896        -0.717239        -0.533558
 H        -0.928399         0.650754         0.208858
 H         0.592505         0.944376        -0.776358
 H         2.190517        -2.176195         0.528946
