19
Iteration:  2892
 C         1.738482         2.453715         1.329830
 C         2.014346         0.941309         1.526484
 C         1.923694         0.279641         2.842420
 C         2.072920        -1.110811         2.313063
 O         0.838222        -1.223828         1.491849
 C         1.379391        -0.290361         0.568765
 C         0.695390         0.070794        -0.679232
 C         2.808162        -0.716452         0.840854
 O         3.400081         0.558687         0.973476
 H         0.806940         2.742065         1.012527
 H         1.992071         2.965795         2.261602
 H         2.370020         2.865093         0.573623
 H         2.660940         0.395614         3.619172
 H         0.942007         0.494174         3.233782
 H         2.235698        -1.973823         2.987204
 H         0.167165         1.073117        -0.534974
 H         1.481452         0.152926        -1.451568
 H         0.038804        -0.674973        -1.081991
 H         3.485761        -1.495994         0.364978
