19
Iteration:   138
 C         2.589927         2.364222         0.725475
 C         2.366109         0.846388         1.149145
 C         2.789570         0.251742         2.671044
 C         1.962743        -0.952859         2.473573
 O         0.552755        -0.413688         2.094161
 C         1.124673        -0.053865         0.863320
 C         0.003400         0.175096        -0.081951
 C         2.255338        -1.070905         0.849249
 O         3.236560        -0.181376         0.435600
 H         2.113761         2.948454         1.532931
 H         3.604500         2.650989         0.681808
 H         2.089769         2.669771        -0.220789
 H         3.940460         0.107113         2.571514
 H         2.651703         0.853720         3.539357
 H         1.919904        -1.793682         3.081018
 H        -0.489708        -0.806885        -0.259417
 H        -0.761135         0.828828         0.674151
 H         0.413518         0.833547        -0.994060
 H         2.351097        -2.049736         0.455232
