19
Iteration:  2174
 C         2.280357         2.397060         1.085464
 C         2.278660         0.937093         1.272051
 C         2.434144         0.383132         2.650392
 C         1.998348        -1.050163         2.339156
 O         0.602102        -0.773533         1.916131
 C         1.274912        -0.129970         0.858394
 C         0.257887         0.073944        -0.315067
 C         2.506041        -0.993702         0.836680
 O         3.297081         0.158821         0.563711
 H         2.996407         2.827181         1.827695
 H         2.726403         2.601274         0.120733
 H         1.196596         2.750731         1.112840
 H         3.386351         0.497884         3.088412
 H         1.698682         0.914656         3.315364
 H         1.997700        -1.897680         3.007479
 H        -0.727399        -0.228419         0.045448
 H         0.215926         1.013888        -0.899229
 H         0.510050        -0.678726        -1.012615
 H         2.820931        -1.932865         0.327883
