19
Iteration:  2417
 C         2.125531         2.565351         1.100681
 C         2.202149         1.030364         1.480917
 C         2.306222         0.324772         2.838237
 C         2.072903        -1.057026         2.293347
 O         0.676629        -1.061211         1.733525
 C         1.208247        -0.225736         0.673197
 C         0.339802         0.021624        -0.504287
 C         2.577676        -0.887366         0.796202
 O         3.380773         0.289580         0.803502
 H         2.316280         3.277172         1.952529
 H         3.019638         2.651390         0.404825
 H         1.120866         2.688990         0.619944
 H         3.267641         0.524565         3.420219
 H         1.488800         0.606586         3.507013
 H         2.182975        -1.881226         3.037108
 H        -0.452381         0.692961        -0.261003
 H         0.912619         0.553834        -1.244738
 H        -0.118377        -0.827352        -1.070029
 H         2.929359        -1.770237         0.241656
