19
Iteration:  1562
 C         2.583385         2.328676         0.698821
 C         2.367346         0.942878         1.235088
 C         2.691899         0.377379         2.668386
 C         2.035777        -0.954875         2.436435
 O         0.518530        -0.738422         2.153492
 C         1.160774        -0.023998         0.932080
 C         0.085736         0.278822        -0.126582
 C         2.220784        -1.074885         0.875089
 O         3.249750        -0.135977         0.369450
 H         1.641010         2.953349         0.475752
 H         3.111010         2.985641         1.479180
 H         3.043544         2.212295        -0.280659
 H         3.819257         0.295124         2.809645
 H         2.299746         1.050228         3.377264
 H         2.266549        -1.580443         3.309626
 H        -0.940729         0.015547         0.269972
 H         0.254639         1.316113        -0.426114
 H         0.041054        -0.382679        -1.026397
 H         1.988929        -1.932819         0.353997
