19
Iteration:  2232
 C         2.171001         2.391506         0.954731
 C         2.255239         0.973294         1.279160
 C         2.363165         0.346697         2.817234
 C         1.995889        -1.049636         2.408029
 O         0.617248        -0.886258         1.874244
 C         1.213574        -0.212770         0.788895
 C         0.363823         0.149067        -0.296498
 C         2.547324        -0.989282         0.766596
 O         3.351348         0.248517         0.629031
 H         3.071455         2.596262         0.418185
 H         1.344456         2.671170         0.266909
 H         2.209403         3.095304         1.795496
 H         3.493579         0.398595         3.089030
 H         1.768477         0.816320         3.520296
 H         2.138045        -1.979758         2.996283
 H         0.380530         1.223627        -0.366235
 H         0.796977        -0.316117        -1.223292
 H        -0.670915        -0.255480        -0.021959
 H         2.621744        -1.914936         0.193681
