19
Iteration:   535charge 0 multiplicity 1
 C         2.590622         2.223047         0.637897
 C         2.409190         0.898414         1.240116
 C         2.646047         0.384477         2.680217
 C         1.997234        -1.063917         2.358918
 O         0.594743        -0.575428         2.197137
 C         1.119573        -0.025143         0.985849
 C         0.154250         0.254121        -0.116246
 C         2.172010        -1.026539         0.798393
 O         3.191087        -0.083302         0.463544
 H         2.166533         3.117760         1.251888
 H         3.629677         2.302086         0.323332
 H         2.146060         2.299286        -0.369920
 H         3.697036         0.456352         3.041549
 H         2.189109         0.969747         3.460250
 H         2.126786        -1.871329         2.971022
 H        -0.282665        -0.647960        -0.391033
 H        -0.615168         1.030472         0.120377
 H         0.819849         0.550049        -0.891165
 H         2.045753        -1.962327         0.238420
