19
Iteration:   295charge 0 multiplicity 1
 C         2.721977         2.364553         0.725498
 C         2.326551         0.889719         1.113727
 C         2.747850         0.417894         2.638432
 C         2.049213        -0.922508         2.516735
 O         0.565349        -0.654066         2.191835
 C         1.065485        -0.120269         0.915544
 C         0.132202         0.277391        -0.180591
 C         2.161632        -1.138284         0.862617
 O         3.089226        -0.150770         0.413670
 H         2.393376         3.108308         1.415353
 H         3.739649         2.598536         0.923365
 H         2.456311         2.499655        -0.305241
 H         3.838844         0.417620         2.603362
 H         2.296496         0.992909         3.541514
 H         2.235237        -1.664901         3.338995
 H        -0.147629        -0.619282        -0.765396
 H        -0.897865         0.762333         0.249097
 H         0.464322         1.085733        -0.779697
 H         2.245623        -2.095604         0.327927
