19
Iteration:  3681
 C         1.349870         2.360454         1.406004
 C         1.882545         0.954517         1.571332
 C         1.706790         0.163050         2.854868
 C         2.056762        -1.244613         2.171321
 O         0.912885        -1.347975         1.181293
 C         1.567153        -0.225488         0.511312
 C         1.099425         0.164794        -0.864727
 C         2.944827        -0.630548         1.067514
 O         3.364952         0.750299         1.286104
 H         0.263790         2.364134         1.391930
 H         1.731432         2.901246         2.273955
 H         1.739221         2.882572         0.532960
 H         2.558110         0.393616         3.541708
 H         0.806803         0.192171         3.424076
 H         2.298665        -2.018577         2.927786
 H         1.064469        -0.495951        -1.754391
 H         0.027250         0.370079        -0.734529
 H         1.552083         1.150640        -1.062857
 H         3.809582        -1.245988         0.703479
