19
Iteration:  2793
 C         1.866164         2.591622         1.403494
 C         2.065640         1.012450         1.491363
 C         2.003031         0.318183         2.768055
 C         2.123379        -1.151405         2.299898
 O         0.753527        -1.142484         1.549449
 C         1.315943        -0.329203         0.562038
 C         0.620914        -0.000940        -0.697627
 C         2.819487        -0.840195         0.886995
 O         3.331340         0.511780         0.922320
 H         2.685292         2.942651         0.885401
 H         0.892889         2.863868         0.990592
 H         1.774163         3.055034         2.407871
 H         2.937061         0.584286         3.336914
 H         1.174356         0.527275         3.338649
 H         2.213237        -2.092632         2.906906
 H         0.608774        -1.003428        -1.279767
 H        -0.373717         0.374109        -0.426182
 H         1.109881         0.699224        -1.298597
 H         3.423721        -1.627416         0.353556
