19
Iteration:   326
 C         2.685408         2.142323         0.652540
 C         2.479318         0.824135         1.190430
 C         2.576742         0.365057         2.705361
 C         2.005466        -0.961773         2.399533
 O         0.624454        -0.597424         2.254262
 C         1.085114         0.034518         0.910101
 C         0.044457         0.278804        -0.124049
 C         2.218213        -1.039857         0.805629
 O         3.216529        -0.058614         0.431660
 H         2.080776         2.903771         1.318032
 H         3.724937         2.359053         0.335250
 H         2.143089         2.260624        -0.341605
 H         3.592419         0.520150         3.137878
 H         1.860935         0.940358         3.451556
 H         2.251757        -1.828534         3.091328
 H        -0.391665        -0.649089        -0.582934
 H        -0.956058         0.836822         0.240361
 H         0.360274         0.793960        -0.992616
 H         2.312030        -1.920784         0.240167
