19
Iteration:  1127charge 0 multiplicity 1
 C         2.553859         2.145338         0.661704
 C         2.393098         0.833939         1.231353
 C         2.700766         0.379463         2.662262
 C         2.011111        -0.991902         2.382202
 O         0.591521        -0.578875         2.155887
 C         1.092218         0.005195         0.939368
 C         0.042384         0.372659        -0.052544
 C         2.305006        -1.063668         0.875013
 O         3.212244        -0.106310         0.396934
 H         1.610535         2.711585         0.590495
 H         3.293906         2.904572         1.076737
 H         2.941071         1.887659        -0.319650
 H         3.721142         0.466884         2.989124
 H         2.071399         0.889338         3.337748
 H         2.133924        -1.853042         3.005886
 H        -0.347229        -0.531815        -0.596952
 H        -0.775064         0.732787         0.560361
 H         0.488387         0.983606        -0.799765
 H         2.386803        -1.963200         0.261857
