19
Iteration:  3475
 C         1.172674         2.282932         1.467324
 C         1.919997         0.939172         1.592659
 C         1.753440         0.181645         2.878173
 C         1.951940        -1.167866         2.195705
 O         0.821593        -1.221389         1.167603
 C         1.676454        -0.209950         0.490494
 C         1.163271         0.114807        -0.865353
 C         3.020786        -0.607149         0.966335
 O         3.455158         0.688132         1.320614
 H         0.165857         1.926192         1.231144
 H         1.172987         2.919310         2.395610
 H         1.575287         2.995998         0.700496
 H         2.496604         0.593677         3.671626
 H         0.779096         0.129434         3.314811
 H         2.091862        -2.195590         2.553692
 H         1.741578        -0.553599        -1.581964
 H         0.092200         0.066408        -0.968654
 H         1.418059         1.130893        -1.159363
 H         3.725100        -1.439169         0.664364
