19
Iteration:  4729
 C         1.190872         2.212979         1.670111
 C         1.905440         0.978877         1.612247
 C         1.858732         0.152360         2.992886
 C         2.191394        -1.192001         2.054975
 O         0.938205        -1.307070         1.212161
 C         1.491443        -0.162162         0.491431
 C         1.036722        -0.044801        -0.978531
 C         3.000085        -0.478191         0.861332
 O         3.327945         0.858370         1.284572
 H         0.146750         2.012139         1.690584
 H         1.143509         2.809688         2.553566
 H         1.357430         2.859068         0.767237
 H         2.755163         0.488869         3.608420
 H         0.925685         0.097386         3.538912
 H         2.646440        -2.037040         2.629981
 H         1.077726        -1.122643        -1.208815
 H        -0.040644         0.203532        -0.999555
 H         1.583379         0.642884        -1.689723
 H         3.639331        -0.929719         0.044836
