19
Iteration:  4253charge 0 multiplicity 1
 C         1.433040         2.409999         1.571027
 C         1.868639         1.000949         1.480057
 C         1.756071         0.170886         2.910869
 C         2.041766        -1.245730         2.163878
 O         0.839491        -1.257802         1.260239
 C         1.591873        -0.207569         0.486803
 C         1.088101         0.020864        -0.903197
 C         2.957742        -0.590728         0.952914
 O         3.329071         0.730028         1.249858
 H         0.303904         2.338055         1.488141
 H         1.662808         2.821417         2.561138
 H         1.771762         2.995126         0.673711
 H         2.614192         0.364971         3.641051
 H         0.850849         0.096178         3.475150
 H         2.200790        -2.110220         2.861720
 H         0.006123         0.140870        -0.983553
 H         1.705400         0.709922        -1.425682
 H         1.265086        -0.918903        -1.437581
 H         3.657614        -1.249721         0.370891
