19
Iteration:  2440charge 0 multiplicity 1
 C         2.220170         2.415405         1.165188
 C         2.135704         0.934122         1.403122
 C         2.198189         0.331371         2.841008
 C         1.995477        -1.082228         2.306230
 O         0.657161        -1.052013         1.786915
 C         1.274230        -0.154115         0.693957
 C         0.417132        -0.006572        -0.500749
 C         2.656470        -0.851554         0.813320
 O         3.328171         0.459025         0.718478
 H         2.831818         2.896996         2.025264
 H         2.768898         2.591008         0.177901
 H         1.163243         2.707952         1.215551
 H         3.175519         0.621293         3.205834
 H         1.476140         0.831593         3.540624
 H         2.317090        -2.038362         2.705316
 H        -0.092487         0.932963        -0.635429
 H         0.844985        -0.290403        -1.418121
 H        -0.448773        -0.739563        -0.353104
 H         3.002325        -1.621395         0.124115
