19
Iteration:  3881
 C         1.644143         2.511214         1.626684
 C         1.798316         1.035140         1.588150
 C         1.574956         0.188114         2.864654
 C         2.022586        -1.143198         2.147009
 O         1.007527        -1.490269         1.254555
 C         1.535297        -0.244509         0.397252
 C         1.016005         0.003870        -0.930767
 C         2.931610        -0.619091         0.954316
 O         3.319909         0.772497         1.248975
 H         0.568638         2.577207         1.768403
 H         1.976037         2.899594         2.593228
 H         1.976452         2.981577         0.701777
 H         2.267918         0.318570         3.714217
 H         0.516148         0.174544         3.271918
 H         2.431850        -1.968819         2.828414
 H         1.175297        -0.964490        -1.450588
 H        -0.056967         0.423011        -0.803035
 H         1.587358         0.824254        -1.400559
 H         3.627769        -1.121773         0.284821
