19
Iteration:  3850
 C         1.436409         2.354684         1.392174
 C         1.851232         0.928583         1.552217
 C         1.676279         0.135947         2.864210
 C         2.085165        -1.214248         2.126036
 O         0.917379        -1.240549         1.183991
 C         1.576807        -0.218956         0.504328
 C         0.949596         0.147113        -0.775212
 C         3.020151        -0.645758         1.028914
 O         3.399061         0.725597         1.332355
 H         0.410168         2.194265         1.081178
 H         1.461465         2.996233         2.252991
 H         1.909423         2.930034         0.559758
 H         2.369859         0.333575         3.754360
 H         0.683137        -0.052887         3.267927
 H         2.369888        -2.141730         2.711893
 H         0.844199        -0.780556        -1.437935
 H        -0.109837         0.616435        -0.644772
 H         1.610581         0.857826        -1.296168
 H         3.829572        -1.119352         0.515319
