19
Iteration:  3974
 C         1.345055         2.275477         1.337041
 C         1.878007         0.884846         1.493496
 C         1.780696         0.104275         2.842561
 C         2.034877        -1.196703         2.212661
 O         0.835722        -1.241859         1.247132
 C         1.630910        -0.292775         0.543322
 C         1.038577         0.237720        -0.797722
 C         2.963232        -0.614280         1.043693
 O         3.381972         0.743850         1.277191
 H         0.378572         2.377980         1.907013
 H         2.034656         2.899514         1.975422
 H         1.237778         2.678021         0.353169
 H         2.636172         0.354039         3.528892
 H         0.827794         0.405080         3.360484
 H         2.156280        -2.107380         2.735201
 H         1.158140        -0.470400        -1.660274
 H         0.141626         0.821040        -0.891930
 H         1.825037         1.051656        -1.045072
 H         3.647594        -1.386418         0.584943
