19
Iteration:  4151
 C         1.423670         2.385680         1.313003
 C         1.927839         0.953533         1.613284
 C         1.702562         0.143832         2.868126
 C         2.005702        -1.156199         2.113537
 O         0.933302        -1.254336         1.168211
 C         1.592192        -0.229480         0.532583
 C         0.952827         0.172545        -0.805237
 C         3.001876        -0.674465         1.074529
 O         3.430043         0.639067         1.375552
 H         0.529126         2.463868         1.889204
 H         2.114116         3.205375         1.543476
 H         1.147848         2.417228         0.241426
 H         2.324209         0.638535         3.586690
 H         0.593728         0.121745         3.083182
 H         2.141867        -2.037355         2.777474
 H         0.674139        -0.717101        -1.385597
 H        -0.087769         0.591806        -0.570407
 H         1.555877         0.818100        -1.480559
 H         3.509348        -1.363874         0.439987
