19
Iteration:   457
 C         2.647058         2.299494         0.761655
 C         2.415247         0.829399         1.124759
 C         2.693364         0.404387         2.685879
 C         1.977803        -0.997094         2.419108
 O         0.624116        -0.496699         2.142309
 C         1.123661        -0.040901         0.921393
 C         0.013850         0.234212        -0.145006
 C         2.217467        -1.143079         0.866874
 O         3.223961        -0.134407         0.397550
 H         1.703387         2.817044         1.278997
 H         3.518890         2.782012         1.262775
 H         2.553323         2.211217        -0.357962
 H         3.771516         0.516024         2.899456
 H         1.990804         1.083629         3.320270
 H         2.001947        -1.796719         3.143741
 H        -0.417550        -0.727712        -0.378658
 H        -0.732074         0.852633         0.464402
 H         0.396097         0.818090        -0.900533
 H         2.154231        -2.058929         0.350012
