19
Iteration:  3402charge 0 multiplicity 1
 C         1.511255         2.514223         1.520141
 C         1.827174         0.971851         1.581193
 C         1.585585         0.084587         2.849763
 C         2.112090        -1.264878         2.124687
 O         1.001616        -1.429190         1.129197
 C         1.557831        -0.175108         0.501872
 C         1.022732        -0.022076        -0.951476
 C         3.025213        -0.486388         1.010515
 O         3.271246         0.816149         1.420899
 H         0.909612         2.718629         0.612673
 H         0.887347         2.993551         2.328892
 H         2.510343         2.962898         1.507231
 H         2.138482         0.354791         3.743507
 H         0.491900         0.080895         3.271883
 H         2.229828        -2.091398         2.819309
 H         0.390397        -0.908525        -1.016482
 H         0.287219         0.814276        -1.194265
 H         1.776641        -0.071335        -1.797251
 H         3.897391        -1.069767         0.620278
