19
Iteration:   692
 C         2.558829         2.332541         0.790281
 C         2.414487         0.861778         1.136774
 C         2.560822         0.473820         2.572934
 C         2.009976        -0.899114         2.401126
 O         0.643599        -0.580520         2.164025
 C         1.118771        -0.024471         0.888035
 C         0.011109         0.296492        -0.057092
 C         2.252056        -1.140984         0.867960
 O         3.314203        -0.311665         0.438504
 H         2.451958         2.862462         1.689886
 H         3.631659         2.592972         0.449955
 H         1.931933         2.731414        -0.035344
 H         3.548999         0.533140         2.865712
 H         1.914490         1.087678         3.150420
 H         2.279746        -1.826878         3.064389
 H        -0.263592        -0.516245        -0.778883
 H        -0.854124         0.651348         0.299424
 H         0.313834         1.117855        -0.727220
 H         2.179126        -2.329659         0.522195
