19
Iteration:  3424
 C         1.523350         2.454094         1.522393
 C         1.826721         0.992871         1.623935
 C         1.521849         0.127484         2.889928
 C         2.142004        -1.173835         2.082582
 O         0.987460        -1.418995         1.186352
 C         1.577051        -0.226966         0.527065
 C         1.115695        -0.048522        -0.925017
 C         2.962260        -0.480945         0.993060
 O         3.227461         0.785475         1.335948
 H         0.799420         2.718566         0.716872
 H         1.129511         2.967009         2.450205
 H         2.503181         2.848260         1.242532
 H         2.073040         0.152265         3.784950
 H         0.457939        -0.176643         3.259972
 H         2.516040        -2.029865         2.636313
 H         0.676279        -0.802882        -1.547919
 H         0.422240         0.865363        -0.938473
 H         2.073791         0.361358        -1.388036
 H         3.465128        -1.056140         0.200034
