19
Iteration:  2180
 C         2.297344         2.366751         1.039437
 C         2.257400         0.952291         1.291984
 C         2.452377         0.400522         2.711040
 C         2.030520        -1.110984         2.371857
 O         0.591864        -0.776284         1.940104
 C         1.191904        -0.143183         0.815579
 C         0.278577         0.103420        -0.376139
 C         2.535491        -1.005571         0.806881
 O         3.305424         0.173231         0.568584
 H         2.900980         2.907067         1.790484
 H         2.488175         2.656797        -0.033086
 H         1.348856         2.778955         1.354208
 H         3.450918         0.737136         3.157004
 H         1.652499         0.850181         3.354456
 H         2.060596        -1.922580         3.136444
 H        -0.746551        -0.000232         0.056214
 H         0.436095         1.100741        -0.795531
 H         0.407079        -0.887942        -0.947890
 H         2.695044        -1.892021         0.195423
