19
Iteration:  3849charge 0 multiplicity 1
 C         1.428376         2.347617         1.383574
 C         1.855048         0.920851         1.553782
 C         1.677514         0.136640         2.871786
 C         2.076863        -1.213403         2.120475
 O         0.916683        -1.234692         1.190956
 C         1.589326        -0.220420         0.509530
 C         0.952582         0.156157        -0.778075
 C         3.023143        -0.647153         1.024301
 O         3.398488         0.727319         1.334062
 H         0.403872         2.212028         1.060107
 H         1.461501         2.995732         2.249679
 H         1.896027         2.909268         0.570141
 H         2.374795         0.298808         3.714883
 H         0.672911        -0.062649         3.300698
 H         2.366850        -2.125064         2.716380
 H         0.824962        -0.758017        -1.420211
 H        -0.123139         0.596685        -0.641421
 H         1.601471         0.862463        -1.341302
 H         3.833401        -1.131374         0.504851
