19
Iteration:  3339charge 0 multiplicity 1
 C         1.241478         2.269401         1.413571
 C         1.926305         0.988002         1.600948
 C         1.755363         0.113181         2.863777
 C         2.110454        -1.186983         2.218154
 O         0.864625        -1.338855         1.292664
 C         1.494584        -0.237360         0.532975
 C         1.207693         0.151237        -0.899760
 C         2.938319        -0.559330         0.946865
 O         3.354401         0.803300         1.272777
 H         1.871914         2.783142         0.673658
 H         0.205805         2.209971         1.066055
 H         1.225946         2.835590         2.306153
 H         2.526710         0.220092         3.565467
 H         0.637188         0.074468         3.248849
 H         2.258651        -2.191971         2.674758
 H         0.498266        -0.489092        -1.339701
 H         0.961142         1.263561        -0.860282
 H         2.151575         0.059580        -1.525147
 H         3.651440        -1.209607         0.367745
