19
Iteration:  4971charge 0 multiplicity 1
 C         1.349428         2.416636         1.693160
 C         1.849754         0.951228         1.591485
 C         1.740214         0.119710         2.885873
 C         2.220258        -1.138469         2.141504
 O         1.093003        -1.469465         1.110924
 C         1.537668        -0.275527         0.432799
 C         0.785774        -0.073667        -0.916041
 C         3.058103        -0.476007         0.876372
 O         3.302310         0.936969         1.359955
 H         0.333952         2.550108         2.166552
 H         2.089081         3.011586         2.204738
 H         1.527882         2.728797         0.700544
 H         2.278812         0.609888         3.682839
 H         0.732243        -0.209905         3.257504
 H         2.474152        -2.040838         2.676038
 H        -0.242233        -0.454381        -0.722954
 H         0.617846         1.042520        -1.012235
 H         1.220393        -0.455801        -1.855448
 H         3.743037        -1.105017         0.239920
