19
Iteration:   836charge 0 multiplicity 1
 C         2.535521         2.249047         0.593541
 C         2.514287         0.871779         1.256464
 C         2.703466         0.384419         2.736310
 C         1.984186        -0.999374         2.366746
 O         0.639425        -0.549737         2.178617
 C         1.122823        -0.066737         0.922380
 C        -0.067259         0.308846        -0.102330
 C         2.185735        -1.057673         0.787297
 O         3.338596        -0.167790         0.474414
 H         1.462958         2.666425         0.620471
 H         3.048697         2.997369         1.110002
 H         2.921701         2.350631        -0.392336
 H         3.632613         0.420854         2.962613
 H         2.047638         0.861419         3.512610
 H         1.993450        -1.860971         2.949959
 H        -0.942316        -0.191372         0.278793
 H        -0.272977         1.389577        -0.115595
 H         0.124785         0.102261        -1.080303
 H         2.168431        -2.105063         0.324692
