19
Iteration:  3246
 C         1.475712         2.447521         1.511970
 C         1.830911         0.998332         1.543672
 C         1.718898         0.211013         2.806155
 C         2.036726        -1.207538         2.082076
 O         0.966527        -1.349495         1.180734
 C         1.566890        -0.237702         0.528465
 C         0.893272        -0.105647        -0.833276
 C         3.011344        -0.601497         0.998969
 O         3.373120         0.818506         1.368205
 H         1.573726         2.710225         2.576325
 H         2.253915         3.028743         0.951203
 H         0.475374         2.765922         1.083086
 H         2.531638         0.737977         3.461512
 H         0.771766         0.105195         3.243542
 H         2.190022        -2.106874         2.680825
 H         1.387508        -0.827015        -1.579857
 H        -0.153840        -0.341603        -0.674147
 H         0.881430         0.870645        -1.342443
 H         3.835955        -1.058788         0.498174
