19
Iteration:  2687charge 0 multiplicity 1
 C         1.759585         2.486974         1.251329
 C         2.180009         0.974622         1.421130
 C         2.092409         0.340421         2.784700
 C         2.052529        -1.151524         2.308733
 O         0.727031        -1.077112         1.655505
 C         1.294343        -0.248432         0.657806
 C         0.619179         0.114649        -0.647114
 C         2.754940        -0.874515         0.962811
 O         3.442210         0.416367         0.790450
 H         1.311844         2.706561         2.233345
 H         2.639455         3.179572         1.214457
 H         0.845686         2.604848         0.649175
 H         3.090233         0.297437         3.266541
 H         1.302090         0.381377         3.551889
 H         2.232834        -1.958015         3.025763
 H         0.672581         1.204015        -0.596294
 H         1.142123        -0.252297        -1.554442
 H        -0.451030        -0.191292        -0.679753
 H         3.054091        -1.669093         0.214376
