19
Iteration:  3720
 C         1.586526         2.465514         1.612867
 C         1.895388         1.060652         1.700164
 C         1.611249         0.100120         2.833764
 C         2.109509        -1.132505         2.095413
 O         0.906971        -1.299406         1.136561
 C         1.565248        -0.235301         0.392434
 C         0.969679        -0.196950        -0.999614
 C         2.922541        -0.507872         1.014126
 O         3.362168         0.789146         1.424384
 H         0.617950         2.636973         2.128445
 H         2.217589         3.040189         2.310264
 H         1.511403         2.833875         0.540094
 H         2.227833         0.331861         3.747668
 H         0.508771         0.053954         2.951138
 H         2.207729        -2.178976         2.441678
 H         1.230348        -1.197764        -1.391112
 H        -0.118595        -0.087704        -0.773294
 H         1.312597         0.521118        -1.732948
 H         3.645031        -0.984107         0.353165
