19
Iteration:  4344
 C         1.510011         2.468453         1.533326
 C         1.795456         0.962566         1.597478
 C         1.713827         0.102313         2.908676
 C         2.095295        -1.213865         2.110284
 O         1.029499        -1.387404         1.186386
 C         1.512106        -0.228902         0.496674
 C         0.972643         0.003693        -0.914092
 C         2.932200        -0.508657         0.960825
 O         3.289829         0.784096         1.319349
 H         0.421892         2.752277         1.742575
 H         2.145038         2.980463         2.365502
 H         1.850354         2.950166         0.609635
 H         2.468510         0.628403         3.488970
 H         0.626745        -0.061343         3.221197
 H         2.236736        -1.962204         2.849902
 H         1.688170         0.653917        -1.385363
 H         1.104067        -1.036705        -1.245857
 H        -0.093141         0.269103        -1.096498
 H         3.648061        -1.108306         0.376897
