19
Iteration:  2209charge 0 multiplicity 1
 C         2.214024         2.385486         0.936424
 C         2.261888         0.982611         1.392317
 C         2.458255         0.398459         2.752734
 C         2.056507        -1.051714         2.318239
 O         0.660931        -0.942710         1.960332
 C         1.094230        -0.154912         0.785822
 C         0.321203         0.211149        -0.457720
 C         2.495281        -0.966754         0.852907
 O         3.301542         0.145288         0.663208
 H         3.190410         2.817452         0.893964
 H         1.694239         2.535676        -0.000827
 H         1.726586         3.015864         1.734081
 H         3.532175         0.431451         3.114162
 H         1.793830         0.794214         3.432085
 H         2.330836        -1.867139         2.993395
 H        -0.340075         1.037632        -0.241519
 H         1.018875         0.427906        -1.313914
 H        -0.258586        -0.707495        -0.619644
 H         2.665476        -1.944874         0.405150
