19
Iteration:  1772charge 0 multiplicity 1
 C         2.568722         2.425857         0.748569
 C         2.306029         0.923025         1.232515
 C         2.607794         0.402696         2.662234
 C         1.975276        -0.949307         2.410510
 O         0.563339        -0.706023         2.090283
 C         1.091338        -0.187450         0.900748
 C         0.203192         0.194632        -0.100234
 C         2.347256        -1.091416         0.822368
 O         3.184847        -0.053210         0.458266
 H         3.521788         2.903307         1.159048
 H         2.823351         2.390639        -0.333670
 H         1.676504         3.113948         0.927329
 H         3.637701         0.430279         2.910004
 H         2.130736         1.045310         3.522675
 H         2.153858        -1.856735         3.001000
 H         0.583691         1.083870        -0.666163
 H        -0.007413        -0.701699        -0.755469
 H        -0.642064         0.682699         0.329245
 H         2.515065        -2.128935         0.349509
