19
Iteration:   878charge 0 multiplicity 1
 C         2.635360         2.333781         0.780069
 C         2.351176         0.883567         1.127807
 C         2.757845         0.458763         2.589390
 C         1.992121        -0.928059         2.490623
 O         0.588452        -0.624615         2.289493
 C         1.031350        -0.169038         0.897319
 C         0.129750         0.293458        -0.185551
 C         2.198995        -1.114261         0.890812
 O         3.131630        -0.158973         0.321813
 H         1.742834         2.841276         0.638796
 H         3.169733         2.860518         1.545533
 H         3.303585         2.344869        -0.028997
 H         3.808554         0.318647         2.545908
 H         2.510327         1.159384         3.417928
 H         2.216845        -1.718680         3.140768
 H        -0.617339        -0.478119        -0.509058
 H        -0.258704         1.149992         0.287938
 H         0.858692         0.554255        -0.928631
 H         2.140655        -2.161569         0.364803
