19
Iteration:  1985
 C         2.498231         2.406405         0.950278
 C         2.250154         0.877871         1.273963
 C         2.562098         0.476265         2.697406
 C         2.057296        -1.058925         2.383664
 O         0.579732        -0.794402         2.084024
 C         1.149128        -0.144073         0.821455
 C         0.170661         0.100601        -0.381100
 C         2.359062        -1.031419         0.885781
 O         3.247456         0.126398         0.488813
 H         1.765105         3.119036         0.473287
 H         2.620924         3.058904         1.853803
 H         3.347025         2.385349         0.276177
 H         3.576239         0.519291         3.072330
 H         1.882177         0.773449         3.479591
 H         2.162417        -1.807615         3.141006
 H         0.086589         1.162487        -0.429487
 H         0.716950        -0.197321        -1.234185
 H        -0.768161        -0.470339        -0.393507
 H         2.381199        -1.940565         0.358324
