19
Iteration:   831
 C         2.484186         2.258033         0.601716
 C         2.514488         0.867821         1.213736
 C         2.688775         0.381589         2.682103
 C         1.948901        -0.961261         2.402425
 O         0.611278        -0.566071         2.142717
 C         1.109004        -0.049412         0.942179
 C        -0.097907         0.340362        -0.091857
 C         2.241434        -1.094878         0.808542
 O         3.385822        -0.170916         0.498005
 H         1.570643         2.777219         0.741381
 H         3.250176         2.970058         1.162641
 H         2.992840         2.300774        -0.402139
 H         3.941240         0.434090         2.898551
 H         2.112946         0.787341         3.491848
 H         2.000533        -1.986107         2.941518
 H        -0.923718        -0.257471         0.459999
 H        -0.254895         1.420865         0.035042
 H         0.119322        -0.072562        -1.190273
 H         2.144050        -2.053184         0.246345
