19
Iteration:  1813charge 0 multiplicity 1
 C         2.503196         2.386377         0.907986
 C         2.433040         0.983921         1.236699
 C         2.569230         0.425610         2.669022
 C         2.025286        -0.987208         2.345178
 O         0.622135        -0.588247         2.113333
 C         1.130986        -0.162809         0.834124
 C         0.018065         0.135660        -0.240630
 C         2.315290        -1.092188         0.814220
 O         3.281601        -0.120585         0.497624
 H         3.536481         2.644654         0.562167
 H         1.851855         2.706553         0.091640
 H         2.161907         2.927881         1.736541
 H         3.585313         0.472439         3.068907
 H         1.889710         0.939690         3.444241
 H         2.218279        -1.690699         3.117842
 H         0.525432        -0.014951        -1.223890
 H        -0.765647        -0.617579        -0.025134
 H        -0.310142         1.184064        -0.365684
 H         2.476329        -2.047698         0.358351
