19
Iteration:  1443charge 0 multiplicity 1
 C         2.601370         2.243376         0.591121
 C         2.394021         0.877326         1.244991
 C         2.620505         0.408342         2.647397
 C         2.047693        -1.056486         2.439521
 O         0.546357        -0.580832         2.171732
 C         1.128104        -0.064437         0.978454
 C         0.162206         0.311867        -0.130773
 C         2.236626        -1.075493         0.843673
 O         3.181008        -0.066976         0.446698
 H         2.441534         3.080673         1.290165
 H         3.542901         2.347308         0.005353
 H         1.811779         2.323474        -0.097681
 H         3.634003         0.244644         3.177603
 H         1.964985         0.997703         3.425129
 H         2.309761        -2.069681         2.891229
 H        -0.069460        -0.677964        -0.690934
 H        -0.784004         0.661949         0.443330
 H         0.515209         1.179763        -0.740713
 H         2.273615        -2.017529         0.373455
