19
Iteration:  1725charge 0 multiplicity 1
 C         2.438721         2.276975         0.757684
 C         2.327175         0.848923         1.228055
 C         2.626158         0.473134         2.635602
 C         2.059836        -1.046284         2.368649
 O         0.615584        -0.532021         2.081891
 C         1.097264        -0.134432         0.872619
 C         0.111442         0.248766        -0.098697
 C         2.284627        -1.097297         0.771978
 O         3.315236        -0.104960         0.554572
 H         2.701731         2.908813         1.628077
 H         3.314891         2.459055         0.112550
 H         1.539402         2.645491         0.363640
 H         3.731196         0.549626         2.866949
 H         2.159541         0.844499         3.536487
 H         2.004854        -1.814549         3.066094
 H         0.105641         1.302958        -0.335480
 H         0.267887        -0.367020        -0.967755
 H        -0.855365         0.180990         0.303387
 H         2.364075        -1.921119         0.152103
