19
Iteration:  4674
 C         1.380977         2.337600         1.649559
 C         1.867095         0.981369         1.589496
 C         1.694961         0.092944         2.885982
 C         2.189000        -1.135573         2.097355
 O         1.148786        -1.468328         1.205737
 C         1.495281        -0.294465         0.516707
 C         0.955102         0.042989        -0.920622
 C         2.902385        -0.488170         0.965691
 O         3.231763         0.887141         1.227325
 H         0.416515         2.491931         1.157075
 H         1.483128         2.804462         2.622313
 H         1.998564         2.947585         0.910610
 H         2.488832         0.260563         3.684128
 H         0.660014         0.140287         3.190999
 H         2.651928        -1.831878         2.844044
 H         1.724327         0.016240        -1.726274
 H         0.109274        -0.605561        -1.131430
 H         0.544385         1.070423        -0.864453
 H         3.604594        -0.996612         0.309205
