19
Iteration:   187charge 0 multiplicity 1
 C         2.626998         2.329992         0.671569
 C         2.261745         0.879323         1.224910
 C         2.626993         0.449112         2.596816
 C         2.100536        -1.010870         2.386125
 O         0.592716        -0.655936         2.231169
 C         1.069011        -0.108320         0.952412
 C         0.153479         0.402287        -0.116872
 C         2.247123        -1.149888         0.895476
 O         3.161632        -0.178047         0.355343
 H         2.068031         3.175796         1.172077
 H         3.771353         2.443053         0.941575
 H         2.543395         2.480142        -0.419922
 H         3.656968         0.528934         2.860109
 H         2.047876         0.852574         3.530866
 H         2.417096        -1.769742         3.197694
 H        -0.836403        -0.027151         0.089823
 H         0.023430         1.540533         0.010276
 H         0.548005         0.196929        -1.068746
 H         2.219176        -2.148842         0.316884
