19
Iteration:  1746charge 0 multiplicity 1
 C         2.471902         2.250049         0.722138
 C         2.430780         0.864768         1.274638
 C         2.609128         0.370223         2.679152
 C         2.025189        -0.962812         2.438200
 O         0.631143        -0.707524         2.183249
 C         1.114114        -0.004067         0.835268
 C         0.037905         0.285809        -0.260030
 C         2.286850        -1.052028         0.853745
 O         3.293265        -0.054030         0.481720
 H         2.949399         2.969815         1.363000
 H         3.083759         2.351282        -0.167130
 H         1.484804         2.528293         0.519322
 H         3.633639         0.452873         3.154016
 H         2.027670         0.873004         3.405692
 H         2.326725        -1.828327         2.962106
 H         0.079850         1.284069        -0.612662
 H         0.156238        -0.508280        -0.938374
 H        -0.940881         0.420542         0.162277
 H         2.269273        -1.947755         0.339271
