19
Iteration:  4914charge 0 multiplicity 1
 C         1.121843         2.241521         1.461666
 C         1.875846         0.950832         1.621911
 C         1.863277         0.037792         2.927326
 C         2.216437        -1.177115         2.117142
 O         1.111904        -1.420125         1.281657
 C         1.507591        -0.238098         0.507595
 C         0.974496         0.223057        -0.794627
 C         2.997081        -0.434252         0.867243
 O         3.229399         0.803625         1.257764
 H         0.186610         2.025367         0.907165
 H         0.977533         2.761673         2.386823
 H         1.790455         2.762446         0.717134
 H         2.781458         0.399761         3.424284
 H         0.957518         0.067083         3.566964
 H         2.633000        -2.101849         2.399978
 H         0.096412         0.792445        -0.511480
 H         1.745050         0.906077        -1.286092
 H         0.616476        -0.557167        -1.560641
 H         3.664799        -0.996771         0.168378
