19
Iteration:   654charge 0 multiplicity 1
 C         2.684053         2.208735         0.608344
 C         2.282894         0.896613         1.270088
 C         2.647043         0.407898         2.671498
 C         1.969401        -0.972522         2.415224
 O         0.616297        -0.659731         2.132160
 C         1.057304        -0.112921         0.908096
 C         0.061183         0.326610        -0.062918
 C         2.274166        -1.037737         0.850708
 O         3.216023        -0.050501         0.411878
 H         1.998641         3.100666         0.919005
 H         3.731950         2.231720         0.863832
 H         2.603690         2.065018        -0.486536
 H         3.786537         0.246439         2.883021
 H         2.271346         0.978191         3.616738
 H         2.078330        -1.708832         3.119838
 H        -0.502317        -0.581416        -0.272367
 H        -0.676446         1.176012         0.457170
 H         0.689031         0.659655        -0.915910
 H         2.549361        -1.966346         0.517042
