19
Iteration:  1415charge 0 multiplicity 1
 C         2.645650         2.286276         0.696944
 C         2.402677         0.873555         1.185727
 C         2.657899         0.430683         2.629745
 C         1.988987        -0.955759         2.534531
 O         0.634168        -0.607594         2.147476
 C         1.079377        -0.067891         0.906915
 C        -0.020709         0.290535        -0.160167
 C         2.231590        -1.080857         0.801776
 O         3.265515        -0.155699         0.471236
 H         2.200274         2.879972         1.511194
 H         3.639923         2.591644         0.433740
 H         2.033469         2.519946        -0.249950
 H         3.644270         0.225629         2.838278
 H         2.264844         1.004560         3.431758
 H         2.113751        -1.734673         3.214599
 H         0.017653        -0.566666        -0.734948
 H        -1.016915         0.337457         0.198120
 H         0.167645         1.214752        -0.690751
 H         2.283593        -2.142623         0.345804
