19
Iteration:  3170charge 0 multiplicity 1
 C         1.328186         2.371614         1.449574
 C         1.899086         0.993124         1.512469
 C         1.886998         0.207239         2.936948
 C         2.029654        -1.180941         2.227104
 O         0.900227        -1.283563         1.311168
 C         1.544725        -0.234179         0.538400
 C         0.940846         0.076404        -0.850285
 C         2.963428        -0.667737         0.972853
 O         3.402582         0.689764         1.138509
 H         0.287978         2.413620         1.119319
 H         1.299845         2.761531         2.458105
 H         1.857118         2.883244         0.613606
 H         2.850600         0.414671         3.594686
 H         0.958412         0.389185         3.419676
 H         2.186695        -2.181398         2.670058
 H         1.655357         0.853131        -1.359979
 H         0.856476        -0.753695        -1.579129
 H        -0.033393         0.628450        -0.714053
 H         3.708083        -1.254671         0.475688
