19
Iteration:  1034charge 0 multiplicity 1
 C         2.526764         2.323373         0.775362
 C         2.421528         0.880348         1.161849
 C         2.788655         0.266109         2.611855
 C         1.962176        -0.946310         2.355348
 O         0.546278        -0.539788         2.176437
 C         1.150191        -0.004058         0.842383
 C         0.072941         0.178484        -0.138819
 C         2.208553        -1.035230         0.901003
 O         3.247467        -0.107836         0.520571
 H         2.311592         3.060750         1.616054
 H         3.461037         2.679434         0.317728
 H         1.880419         2.500938        -0.162583
 H         3.842078         0.009325         2.549084
 H         2.573170         0.808336         3.634003
 H         2.077975        -1.823120         3.157214
 H        -0.840083        -0.322480         0.130903
 H        -0.302379         1.245753        -0.310102
 H         0.242437        -0.317079        -1.155870
 H         2.052020        -1.991546         0.309208
