19
Iteration:  2695charge 0 multiplicity 1
 C         1.752827         2.398061         1.277031
 C         2.164745         0.973963         1.428881
 C         2.100397         0.345191         2.874435
 C         2.039888        -1.125968         2.265905
 O         0.707224        -1.057718         1.603362
 C         1.377300        -0.276637         0.633616
 C         0.639702         0.138903        -0.594187
 C         2.747993        -0.868990         0.900516
 O         3.392571         0.436370         0.821944
 H         1.563722         2.810186         2.241206
 H         2.581409         3.038339         0.888737
 H         0.855565         2.452930         0.545694
 H         3.134862         0.552618         3.282896
 H         1.367988         0.652358         3.546764
 H         2.265635        -1.966735         2.969648
 H         0.735592         1.230497        -0.822207
 H         0.857810        -0.481623        -1.447083
 H        -0.328758        -0.149706        -0.450265
 H         3.076017        -1.773891         0.339718
