19
Iteration:  1864
 C         2.484436         2.310155         0.864832
 C         2.307866         0.934172         1.285504
 C         2.626622         0.378075         2.695422
 C         2.050010        -0.979806         2.387183
 O         0.615165        -0.633838         2.127196
 C         1.101551        -0.204013         0.900957
 C         0.116434         0.187794        -0.346024
 C         2.315897        -1.055625         0.815335
 O         3.251757         0.010107         0.532540
 H         2.986581         2.233062        -0.101455
 H         1.471243         2.675107         0.517355
 H         2.856636         3.113793         1.561141
 H         3.721137         0.574877         2.966380
 H         2.062734         0.876728         3.398807
 H         2.194851        -1.929967         2.915090
 H        -0.155458        -0.519750        -1.167558
 H        -0.761777         0.614942         0.067952
 H         0.782586         0.897035        -0.949721
 H         2.503314        -1.968935         0.346467
