19
Iteration:  3560
 C         1.566954         2.477928         1.645244
 C         1.820183         1.045581         1.640890
 C         1.488313         0.143022         2.771951
 C         2.086866        -1.136109         2.182642
 O         1.035258        -1.421976         1.148231
 C         1.554137        -0.314321         0.469217
 C         1.043391        -0.054524        -0.971564
 C         2.972893        -0.508331         0.959057
 O         3.302307         0.807129         1.339535
 H         0.794432         2.725125         2.334830
 H         2.475564         2.770360         2.140136
 H         1.520284         2.977769         0.677443
 H         1.938163         0.528059         3.751570
 H         0.487518        -0.066499         2.946643
 H         2.277246        -2.038861         2.849967
 H         1.202568        -0.960280        -1.673895
 H        -0.035817        -0.039494        -1.031794
 H         1.453970         0.842242        -1.424601
 H         3.678718        -1.295564         0.591065
