19
Iteration:  4397
 C         1.299276         2.402409         1.781055
 C         1.908363         0.961208         1.528273
 C         1.814629         0.152192         2.883925
 C         2.045228        -1.128524         2.139923
 O         0.940979        -1.273416         1.233829
 C         1.548609        -0.194794         0.473909
 C         1.078718        -0.130080        -1.076586
 C         2.926281        -0.567914         0.942610
 O         3.333504         0.761361         1.254259
 H         0.218989         2.556261         2.177699
 H         1.766779         3.067070         2.538601
 H         1.269921         2.822134         0.799013
 H         2.679440         0.527606         3.464491
 H         0.810569         0.356787         3.336035
 H         2.414379        -1.910603         2.742768
 H         1.893325        -0.492794        -1.664515
 H         0.266893        -0.848693        -1.097659
 H         0.840425         0.940515        -1.235876
 H         3.580274        -1.315400         0.385566
