19
Iteration:  3869charge 0 multiplicity 1
 C         1.499205         2.482545         1.551711
 C         1.970313         0.994111         1.581403
 C         1.646587         0.174808         2.792124
 C         2.070570        -1.173296         2.175095
 O         0.982301        -1.461510         1.199125
 C         1.511626        -0.264869         0.541270
 C         0.985957         0.076815        -0.884374
 C         2.910418        -0.584117         0.938747
 O         3.327157         0.744023         1.320834
 H         0.453566         2.747017         1.382717
 H         1.931782         2.982829         2.451410
 H         2.041980         2.991975         0.780571
 H         2.175276         0.480171         3.666167
 H         0.510686         0.129713         2.935649
 H         2.324663        -2.027040         2.845939
 H         0.901745        -0.784734        -1.523891
 H        -0.092936         0.380279        -0.874215
 H         1.614377         0.803800        -1.447637
 H         3.639591        -1.260492         0.451044
