19
Iteration:  1369
 C         2.616545         2.418366         0.826556
 C         2.487540         0.846285         1.129482
 C         2.671172         0.388098         2.615521
 C         2.010123        -0.976417         2.454472
 O         0.624182        -0.523426         2.202399
 C         1.105581        -0.013958         0.906704
 C        -0.008653         0.167405        -0.175757
 C         2.240581        -1.108546         0.840196
 O         3.177391        -0.231957         0.382739
 H         1.624115         2.877365         1.083798
 H         3.495768         2.871667         1.313625
 H         2.959655         2.531784        -0.226666
 H         3.674881         0.458802         2.831240
 H         2.076180         1.167401         3.293557
 H         2.025067        -1.740370         3.277127
 H        -0.079893        -0.786091        -0.651242
 H        -0.974335         0.401679         0.341756
 H         0.272195         1.079359        -0.610056
 H         2.194710        -1.998087         0.157324
