19
Iteration:  4829
 C         1.251247         2.381662         1.677993
 C         1.817771         1.011809         1.618504
 C         1.778596        -0.006875         2.805627
 C         2.177886        -1.173466         2.021493
 O         1.077569        -1.298483         1.168026
 C         1.606886        -0.207582         0.473014
 C         0.870078        -0.193341        -0.878255
 C         3.105942        -0.438037         0.934202
 O         3.253673         0.921505         1.351045
 H         0.318790         2.439202         2.285080
 H         1.838885         3.060016         2.215417
 H         1.108003         2.930490         0.747852
 H         2.495610         0.314912         3.549575
 H         0.798713        -0.152313         3.332668
 H         2.352383        -2.141286         2.445067
 H        -0.185185        -0.116100        -0.791366
 H         1.171015         0.742574        -1.432078
 H         1.155572        -1.104931        -1.475978
 H         3.937588        -0.979978         0.322754
