19
Iteration:  1449
 C         2.581649         2.178763         0.605780
 C         2.397121         0.866297         1.213204
 C         2.600178         0.374601         2.678725
 C         2.040056        -1.027745         2.450725
 O         0.585290        -0.596264         2.166327
 C         1.095631        -0.055130         0.956735
 C         0.144592         0.353105        -0.104565
 C         2.247511        -1.060495         0.831985
 O         3.191563        -0.042210         0.442970
 H         2.544214         2.971386         1.361749
 H         3.591179         2.243220         0.183982
 H         1.683033         2.357348        -0.080692
 H         3.684107         0.503700         2.861817
 H         2.045269         0.892152         3.388730
 H         2.117984        -1.819337         3.217056
 H         0.054855        -0.570558        -0.621861
 H        -0.738351         0.659816         0.355202
 H         0.571731         0.922050        -0.942960
 H         2.299189        -2.057663         0.281966
