19
Iteration:   724charge 0 multiplicity 1
 C         2.518284         2.295826         0.778133
 C         2.465455         0.812787         1.179268
 C         2.773542         0.310934         2.632680
 C         1.901408        -0.901951         2.476924
 O         0.626112        -0.430848         2.179631
 C         1.128166        -0.041529         0.858783
 C         0.053865         0.160809        -0.198598
 C         2.254419        -1.133686         0.872242
 O         3.182124        -0.077961         0.439792
 H         2.524673         2.841022         1.667790
 H         3.497585         2.359895         0.202324
 H         1.636757         2.608734         0.189245
 H         3.813810         0.150982         2.736732
 H         2.475380         0.996556         3.339495
 H         1.978645        -1.894869         3.093894
 H        -0.234744        -0.753774        -0.818975
 H        -0.820808         0.522198         0.214471
 H         0.429730         1.002202        -0.879345
 H         2.192257        -2.285177         0.493714
