19
Iteration:  3927charge 0 multiplicity 1
 C         1.456559         2.495819         1.677666
 C         1.923847         0.972644         1.559615
 C         1.695335         0.131355         2.871793
 C         1.980716        -1.187718         2.072076
 O         0.861946        -1.254376         1.244139
 C         1.490687        -0.166717         0.515494
 C         1.156892        -0.170044        -0.973156
 C         2.887783        -0.532329         0.918005
 O         3.391332         0.726862         1.289283
 H         0.641097         2.662079         2.357575
 H         2.224579         3.098404         2.102110
 H         1.236038         2.869301         0.626218
 H         2.516308         0.559682         3.563884
 H         0.810071        -0.015072         3.414010
 H         2.365195        -2.103629         2.590242
 H         1.513558        -1.190620        -1.428023
 H         0.017621        -0.041500        -1.032730
 H         1.462467         0.682236        -1.579948
 H         3.639608        -1.150695         0.489923
