19
Iteration:   160charge 0 multiplicity 1
 C         2.585746         2.229927         0.767782
 C         2.503049         0.785337         1.226365
 C         2.686372         0.436531         2.599190
 C         1.970875        -0.947044         2.407091
 O         0.658040        -0.547784         2.179100
 C         1.073246        -0.040852         0.884348
 C        -0.009145         0.285122        -0.101560
 C         2.170102        -1.124711         0.827485
 O         3.258597        -0.127521         0.402063
 H         2.122355         2.862358         1.535984
 H         3.558947         2.610769         0.702428
 H         2.098898         2.370305        -0.215534
 H         3.706650         0.311853         3.109465
 H         2.171102         1.157514         3.185035
 H         2.199461        -1.727187         3.054131
 H        -0.735662        -0.551936        -0.005031
 H        -0.609238         1.322963         0.153009
 H         0.497340         0.450105        -1.154152
 H         2.131825        -2.059384         0.347040
