19
Iteration:  3698
 C         1.468795         2.393253         1.514726
 C         1.873065         0.963283         1.530681
 C         1.667386         0.096235         2.859509
 C         1.992914        -1.169854         2.141522
 O         0.959166        -1.263574         1.181833
 C         1.591593        -0.194952         0.484963
 C         0.988033         0.021108        -0.871896
 C         3.043505        -0.575523         0.980385
 O         3.330440         0.749960         1.381241
 H         0.382283         2.518586         1.731705
 H         1.890127         2.996215         2.339660
 H         1.635283         2.793247         0.469181
 H         2.354976         0.505873         3.625330
 H         0.577274         0.018069         3.082096
 H         2.223908        -2.162040         2.603465
 H         1.273024        -0.919665        -1.391866
 H        -0.109783        -0.027071        -0.823360
 H         1.487970         0.777639        -1.455683
 H         3.736003        -1.238586         0.471161
