19
Iteration:  2442
 C         2.209157         2.446849         1.177607
 C         2.114294         0.916827         1.395128
 C         2.197705         0.329623         2.832413
 C         2.006135        -1.087562         2.295708
 O         0.652746        -1.045019         1.798825
 C         1.306442        -0.146204         0.678180
 C         0.426916        -0.019112        -0.491862
 C         2.648896        -0.853890         0.813670
 O         3.333089         0.448915         0.716090
 H         2.902047         2.899425         2.024578
 H         2.699935         2.608940         0.179458
 H         1.174708         2.758021         1.261963
 H         3.147299         0.606789         3.168796
 H         1.413607         0.807471         3.551286
 H         2.295113        -2.029851         2.756281
 H        -0.067218         0.997762        -0.622316
 H         0.856625        -0.370959        -1.448723
 H        -0.514999        -0.675685        -0.335814
 H         2.978613        -1.661571         0.154311
