19
Iteration:  2969charge 0 multiplicity 1
 C         1.678488         2.508894         1.452401
 C         1.995305         0.949245         1.493263
 C         1.928539         0.208016         2.753838
 C         2.114856        -1.147735         2.258706
 O         0.825120        -1.204371         1.478269
 C         1.396779        -0.214794         0.586307
 C         0.782902         0.020425        -0.779025
 C         2.846906        -0.731362         0.961387
 O         3.351222         0.597728         1.006646
 H         1.528974         2.955703         2.387821
 H         2.378360         3.196336         0.965687
 H         0.804700         2.570622         0.863402
 H         2.584451         0.531862         3.488775
 H         0.916098         0.043616         3.233620
 H         2.315381        -1.981801         2.961601
 H         1.562797         0.019762        -1.544981
 H         0.096774        -0.828151        -1.018261
 H         0.195834         0.993903        -0.839728
 H         3.453682        -1.467606         0.357869
