19
Iteration:  2980
 C         1.651273         2.418595         1.452917
 C         1.948933         0.999662         1.460754
 C         1.857582         0.292668         2.890368
 C         2.128208        -1.147919         2.230059
 O         0.821054        -1.261277         1.504172
 C         1.393653        -0.207519         0.609927
 C         0.850533         0.030344        -0.767568
 C         2.839043        -0.739077         0.839183
 O         3.395987         0.587859         0.987579
 H         1.661991         2.767596         2.446672
 H         2.394179         2.874753         0.797347
 H         0.658388         2.620661         1.113854
 H         2.652794         0.683548         3.428400
 H         0.842175         0.481069         3.388163
 H         2.259936        -2.011338         2.914362
 H         1.651631        -0.090332        -1.495118
 H        -0.055694        -0.568711        -1.033738
 H         0.600959         1.123536        -0.836497
 H         3.413044        -1.430836         0.157740
