19
Iteration:  4384
 C         1.371367         2.385266         1.796213
 C         1.882511         1.039957         1.634466
 C         1.724372         0.187312         2.845102
 C         2.074877        -1.152324         2.192176
 O         0.918694        -1.229787         1.228583
 C         1.537685        -0.229525         0.433011
 C         1.042999        -0.200942        -1.068595
 C         3.002594        -0.560744         0.946646
 O         3.353918         0.789489         1.190328
 H         0.351102         2.098296         2.163603
 H         2.021511         2.859527         2.491416
 H         1.315078         3.061126         0.958084
 H         2.418684         0.421947         3.703137
 H         0.791477         0.117082         3.317959
 H         2.117696        -2.131262         2.683701
 H         1.854386        -0.253400        -1.791733
 H         0.293909        -0.943600        -1.380661
 H         0.514805         0.755484        -1.354229
 H         3.909718        -1.117509         0.490887
