19
Iteration:  4453
 C         1.348225         2.321937         1.326890
 C         1.861825         0.852978         1.609840
 C         1.714917         0.095704         2.931584
 C         2.202748        -1.201917         2.130489
 O         1.018981        -1.423111         1.229938
 C         1.483713        -0.194481         0.521951
 C         0.959390         0.235795        -0.835587
 C         3.045898        -0.550818         0.986187
 O         3.280101         0.782265         1.298536
 H         0.232805         2.380027         1.427122
 H         1.746549         3.170854         1.972167
 H         1.589334         2.810044         0.363920
 H         2.314660         0.466008         3.768186
 H         0.674786         0.004199         3.430663
 H         2.543604        -1.970972         2.812694
 H         0.640843        -0.588286        -1.479713
 H         0.133225         0.940797        -0.600586
 H         1.795047         0.839581        -1.218704
 H         3.731952        -1.075995         0.350245
