19
Iteration:  3754charge 0 multiplicity 1
 C         1.601121         2.506101         1.729903
 C         1.781047         1.032351         1.569245
 C         1.672710         0.163752         2.810607
 C         2.023379        -1.189257         2.151159
 O         0.945443        -1.376396         1.142946
 C         1.555844        -0.307520         0.456122
 C         1.138836        -0.098378        -0.976674
 C         2.916759        -0.525980         1.039479
 O         3.233015         0.808045         1.277839
 H         0.692488         2.719437         2.314328
 H         2.528179         2.844882         2.200807
 H         1.585346         3.142622         0.765505
 H         2.399641         0.574930         3.613774
 H         0.722079         0.103960         3.278777
 H         2.247757        -2.152471         2.733684
 H         1.099334        -1.115316        -1.447118
 H         0.067153         0.000386        -0.947736
 H         1.656237         0.596415        -1.587263
 H         3.449676        -1.149994         0.317876
