19
Iteration:  2246charge 0 multiplicity 1
 C         2.196048         2.410331         0.990239
 C         2.263421         0.894247         1.408114
 C         2.369159         0.362359         2.779645
 C         1.997714        -1.035047         2.320970
 O         0.658724        -0.839693         1.897611
 C         1.281241        -0.224736         0.752867
 C         0.260403         0.120316        -0.396406
 C         2.561010        -0.934239         0.844072
 O         3.351231         0.194137         0.600500
 H         2.963804         2.674153         0.204906
 H         1.149566         2.634781         0.639876
 H         2.375207         3.009951         1.863926
 H         3.323124         0.426149         3.325981
 H         1.512410         0.740075         3.490349
 H         2.106682        -1.828804         3.076897
 H         0.360199         1.190045        -0.811548
 H         0.187749        -0.537252        -1.293764
 H        -0.816299         0.095877         0.101361
 H         3.108645        -1.759504         0.374564
