19
Iteration:  1942charge 0 multiplicity 1
 C         2.401227         2.372398         0.872393
 C         2.326623         0.953360         1.242512
 C         2.502255         0.357557         2.670268
 C         2.002006        -1.070939         2.355982
 O         0.634512        -0.676468         1.986655
 C         1.206562        -0.071676         0.843586
 C         0.106178         0.140779        -0.249901
 C         2.355803        -1.053694         0.907680
 O         3.384663         0.008244         0.606500
 H         1.720520         2.790519         0.088860
 H         2.132828         3.040019         1.717873
 H         3.360970         2.417881         0.407216
 H         3.525502         0.645289         2.822627
 H         1.899727         0.914339         3.397477
 H         2.065055        -1.926540         2.987264
 H        -0.745003         0.415430         0.385174
 H         0.167059         0.876535        -1.002590
 H        -0.160776        -0.731133        -0.905614
 H         2.496570        -1.848786         0.244607
