19
Iteration:  4718charge 0 multiplicity 1
 C         1.149575         2.319901         1.697394
 C         1.884155         0.984134         1.614731
 C         1.913501         0.064623         2.868601
 C         2.162215        -1.118657         2.065421
 O         0.953385        -1.274250         1.261917
 C         1.564518        -0.167419         0.494263
 C         1.035789        -0.121136        -0.967395
 C         2.915466        -0.509244         0.856365
 O         3.317287         0.864918         1.289270
 H         0.168590         1.991204         1.454032
 H         1.366550         2.600870         2.695630
 H         1.456887         3.145344         1.001337
 H         2.713738         0.468702         3.561963
 H         1.001124        -0.138915         3.409468
 H         2.514023        -2.111189         2.447112
 H         1.417744        -0.933676        -1.594534
 H        -0.061100        -0.087588        -0.993179
 H         1.434552         0.784571        -1.508024
 H         3.740361        -1.143027         0.491826
