19
Iteration:  4140
 C         1.417277         2.357148         1.279781
 C         1.928645         0.965794         1.521045
 C         1.726915         0.194294         2.924617
 C         2.074564        -1.239085         2.203259
 O         0.888601        -1.324368         1.164458
 C         1.534784        -0.136676         0.526800
 C         1.013394         0.190992        -0.779976
 C         2.938422        -0.665915         0.986382
 O         3.377730         0.634539         1.365517
 H         0.479482         2.626265         1.705971
 H         2.141340         3.105587         1.649321
 H         1.322078         2.592053         0.198527
 H         2.442635         0.496745         3.678294
 H         0.727457         0.148396         3.479105
 H         2.150068        -2.216517         2.736388
 H         1.136636        -0.645951        -1.465658
 H        -0.052796         0.567355        -0.641961
 H         1.593607         1.101010        -1.134766
 H         3.776210        -1.300418         0.709503
