19
Iteration:  2277
 C         2.219222         2.438547         1.115004
 C         2.211776         0.996280         1.302846
 C         2.339811         0.417560         2.695346
 C         2.014960        -0.998768         2.276869
 O         0.662572        -0.915452         1.843858
 C         1.248250        -0.191227         0.735570
 C         0.212517         0.022911        -0.379990
 C         2.500670        -0.923269         0.788382
 O         3.446748         0.156058         0.760042
 H         2.340662         2.861454         0.101351
 H         1.273106         2.808949         1.593778
 H         3.090218         2.797276         1.633175
 H         3.406322         0.508709         3.045253
 H         1.598279         0.805494         3.432953
 H         2.188545        -1.769026         3.058928
 H         0.848066         0.218072        -1.271204
 H        -0.325406        -0.928087        -0.561934
 H        -0.429206         0.927841        -0.002378
 H         2.869456        -1.789698         0.235214
