19
Iteration:  2777charge 0 multiplicity 1
 C         1.923068         2.428475         1.384963
 C         2.023699         0.988460         1.360377
 C         2.038663         0.313267         2.880815
 C         2.013392        -1.053996         2.251064
 O         0.749821        -1.211979         1.571744
 C         1.399042        -0.268623         0.602333
 C         0.598892        -0.022418        -0.689672
 C         2.785388        -0.753108         0.878150
 O         3.360114         0.541094         0.908628
 H         2.971640         2.905201         1.177517
 H         1.191337         2.860954         0.670281
 H         1.738786         2.818736         2.394389
 H         2.784402         0.701529         3.572145
 H         0.980584         0.371710         3.435649
 H         2.450311        -1.823484         2.889500
 H         0.646345        -0.658380        -1.555403
 H        -0.491101        -0.147549        -0.457347
 H         0.819710         1.109019        -0.920632
 H         3.341941        -1.552865         0.423044
