19
Iteration:  2477
 C         2.052395         2.470737         1.297957
 C         2.271516         0.939244         1.357162
 C         2.275260         0.446883         2.829289
 C         2.047166        -1.035959         2.290898
 O         0.649806        -1.056404         1.762320
 C         1.265057        -0.183409         0.616896
 C         0.342708        -0.019921        -0.600154
 C         2.602659        -0.866873         0.806970
 O         3.412823         0.303363         0.793262
 H         2.898517         3.189511         1.400893
 H         1.394353         2.770254         0.501517
 H         1.421227         2.712292         2.193997
 H         3.281541         0.632917         3.240753
 H         1.433561         0.837989         3.436327
 H         2.237683        -1.902813         2.950849
 H         0.959775         0.754920        -1.201896
 H         0.394125        -0.973462        -1.267189
 H        -0.692820         0.260207        -0.362110
 H         2.967771        -1.806647         0.364533
