19
Iteration:  4280charge 0 multiplicity 1
 C         1.329718         2.286834         1.460768
 C         1.946417         0.979033         1.524839
 C         1.778624         0.207935         2.866071
 C         2.029550        -1.159429         2.140989
 O         0.920490        -1.265381         1.214921
 C         1.636065        -0.216935         0.449779
 C         0.945234         0.152136        -0.831716
 C         2.985998        -0.639816         1.011746
 O         3.427240         0.682694         1.350679
 H         0.301355         1.927153         1.207837
 H         1.254961         3.047448         2.299659
 H         1.541147         2.663262         0.471247
 H         2.388489         0.373756         3.756110
 H         0.687678         0.153518         3.323005
 H         2.224812        -2.017872         2.805864
 H         0.203503         0.982700        -0.737407
 H         1.699130         0.370857        -1.655388
 H         0.283057        -0.675986        -1.210711
 H         3.630698        -1.374246         0.558880
