19
Iteration:  1190charge 0 multiplicity 1
 C         2.644182         2.239086         0.832270
 C         2.318811         0.820334         1.111663
 C         2.647965         0.442677         2.625602
 C         2.002945        -0.859027         2.528955
 O         0.628055        -0.591979         2.161881
 C         1.120807        -0.099775         0.855105
 C         0.073600         0.246499        -0.113850
 C         2.275500        -1.121981         0.836937
 O         3.169582        -0.123219         0.358104
 H         2.201257         2.917042         1.570829
 H         3.792278         2.286093         0.937589
 H         2.160473         2.481849        -0.124880
 H         3.870062         0.328516         2.792953
 H         2.141331         1.045110         3.323515
 H         2.104183        -1.608391         3.225585
 H        -0.511529        -0.577085        -0.620717
 H        -0.632087         0.935281         0.413537
 H         0.431673         1.011762        -0.920073
 H         2.238863        -1.957963         0.298893
