19
Iteration:  1867
 C         2.460962         2.329507         0.857351
 C         2.308702         0.961668         1.251859
 C         2.633608         0.397266         2.691827
 C         2.056623        -1.028418         2.391387
 O         0.601103        -0.645918         2.142447
 C         1.092911        -0.223187         0.884130
 C         0.164142         0.191853        -0.315441
 C         2.301852        -1.045319         0.794387
 O         3.260189         0.003306         0.551141
 H         3.029001         2.283921        -0.125388
 H         1.464310         2.695794         0.549401
 H         2.987272         2.985558         1.531285
 H         3.647186         0.649435         3.013152
 H         1.960430         0.978692         3.449063
 H         2.248403        -1.946650         2.884027
 H        -0.253642        -0.576615        -1.089711
 H        -0.773917         0.775429         0.060769
 H         0.865298         0.875023        -0.980535
 H         2.386417        -2.004340         0.293543
