19
Iteration:  1716charge 0 multiplicity 1
 C         2.473445         2.377754         0.766925
 C         2.362344         0.900932         1.156295
 C         2.646013         0.342920         2.643797
 C         2.003105        -1.018502         2.455545
 O         0.606458        -0.553622         2.091215
 C         1.184206        -0.132758         0.847768
 C         0.066752         0.246074        -0.115957
 C         2.321905        -1.157974         0.840914
 O         3.261220        -0.082540         0.515517
 H         2.516610         2.988059         1.761004
 H         3.294855         2.635248         0.026796
 H         1.578422         2.738705         0.215443
 H         3.724528         0.483886         2.785809
 H         1.963836         0.875709         3.457227
 H         2.133575        -1.826662         3.105400
 H         0.235571         1.362039        -0.216042
 H         0.125810        -0.249174        -1.157429
 H        -0.901046        -0.023729         0.286922
 H         2.322846        -2.073229         0.225091
