19
Iteration:  2937charge 0 multiplicity 1
 C         1.772643         2.421725         1.389872
 C         1.973853         0.956845         1.568793
 C         1.948319         0.260015         2.866651
 C         1.980444        -1.108119         2.239426
 O         0.825506        -1.190706         1.348852
 C         1.454279        -0.201404         0.587500
 C         0.655049        -0.104504        -0.742593
 C         2.858524        -0.619102         0.838681
 O         3.437402         0.609207         1.126451
 H         1.046788         2.840295         2.045190
 H         2.726234         2.938224         1.377681
 H         1.264803         2.504867         0.475069
 H         2.845809         0.571169         3.285467
 H         1.155869         0.281713         3.690589
 H         2.134867        -1.925301         2.965614
 H         0.936583         0.748647        -1.352928
 H         0.680365        -1.079135        -1.336634
 H        -0.464999        -0.058452        -0.527021
 H         3.336185        -1.339045         0.129711
