19
Iteration:  1259charge 0 multiplicity 1
 C         2.543770         2.288087         0.724661
 C         2.351133         0.822681         1.191976
 C         2.725100         0.280170         2.656655
 C         2.000486        -0.954917         2.386189
 O         0.569485        -0.472971         2.129891
 C         1.077153        -0.109383         0.915842
 C         0.052370         0.230455        -0.107574
 C         2.354993        -1.071625         0.863008
 O         3.238922        -0.075984         0.437442
 H         2.092676         2.979910         1.567521
 H         3.654537         2.617196         0.565752
 H         1.906867         2.653850        -0.105561
 H         3.762415         0.144407         2.801958
 H         2.213908         0.938265         3.499536
 H         1.994609        -1.848499         3.162790
 H        -0.943020        -0.185852         0.220300
 H        -0.033518         1.338386        -0.363819
 H         0.252757        -0.109503        -1.105040
 H         2.471737        -2.131982         0.449497
