19
Iteration:  3955charge 0 multiplicity 1
 C         1.318056         2.352773         1.485284
 C         1.987112         0.946703         1.599206
 C         1.819195         0.188071         2.892677
 C         1.953341        -1.190842         2.133017
 O         0.841785        -1.210025         1.234799
 C         1.579022        -0.161521         0.518237
 C         1.115250         0.052395        -0.945291
 C         2.963377        -0.664783         0.966266
 O         3.366730         0.683499         1.293385
 H         0.454058         2.328073         2.195447
 H         1.875447         3.230257         1.935637
 H         0.983054         2.426674         0.466089
 H         2.537409         0.558879         3.572160
 H         0.820590        -0.000933         3.426089
 H         2.140799        -2.063811         2.791436
 H         1.270012        -0.787752        -1.540019
 H         0.046224         0.265175        -0.844175
 H         1.548901         0.944638        -1.403834
 H         3.750253        -1.305815         0.493417
