19
Iteration:  1325charge 0 multiplicity 1
 C         2.561236         2.304376         0.636435
 C         2.312476         0.942200         1.232048
 C         2.749695         0.300601         2.628622
 C         1.960872        -1.052136         2.462658
 O         0.646986        -0.580401         2.227897
 C         1.086026        -0.127620         0.921329
 C         0.083760         0.343588        -0.156077
 C         2.292430        -1.155298         0.833134
 O         3.175071        -0.061703         0.419203
 H         1.578507         2.879343         0.528369
 H         3.366789         2.881904         1.177132
 H         2.956793         2.166977        -0.399517
 H         3.726895         0.448111         2.872506
 H         2.162854         1.030661         3.418324
 H         2.015865        -1.686785         3.445831
 H        -0.599676        -0.509274        -0.131174
 H        -0.424925         1.299030         0.174084
 H         0.616151         0.633231        -1.014542
 H         2.454277        -2.105442         0.220968
