19
Iteration:  2751
 C         1.906896         2.486667         1.263017
 C         2.076215         1.040542         1.502792
 C         2.075794         0.270046         2.845912
 C         2.061553        -1.139465         2.230852
 O         0.770955        -1.179143         1.522505
 C         1.343937        -0.215235         0.677463
 C         0.544794         0.014520        -0.627480
 C         2.779792        -0.760659         0.840142
 O         3.361234         0.483375         0.965729
 H         2.805244         2.970833         1.588817
 H         1.752013         2.660670         0.161818
 H         1.058476         3.048228         1.774560
 H         2.783233         0.540542         3.642046
 H         1.092814         0.342215         3.269439
 H         2.139042        -1.845948         3.085477
 H         1.121302        -0.234304        -1.537602
 H        -0.228624        -0.735794        -0.645128
 H         0.149317         0.964144        -0.778645
 H         3.326439        -1.497638         0.172987
