19
Iteration:  2034
 C         2.252715         2.356255         0.926604
 C         2.428048         0.852346         1.263049
 C         2.558332         0.361636         2.788385
 C         2.008310        -1.017287         2.421351
 O         0.523715        -0.704127         2.000227
 C         1.234871        -0.080698         0.777824
 C         0.183794         0.131052        -0.316518
 C         2.435494        -0.996413         0.828489
 O         3.348909         0.091533         0.474200
 H         1.295192         2.720478         0.648945
 H         2.389885         2.979892         1.740391
 H         2.942626         2.672049         0.128701
 H         3.541036         0.329507         3.254148
 H         1.895519         0.775110         3.558720
 H         2.015891        -1.976874         2.965701
 H         0.523949         0.698526        -1.195395
 H        -0.355551        -0.866368        -0.434886
 H        -0.460026         0.681825         0.349285
 H         2.606133        -2.054685         0.455834
