19
Iteration:  2454charge 0 multiplicity 1
 C         2.107929         2.532391         1.251581
 C         2.107659         1.016586         1.375494
 C         2.208273         0.330775         2.762296
 C         2.067511        -1.107833         2.272195
 O         0.673969        -0.990329         1.797177
 C         1.302866        -0.203050         0.653065
 C         0.419237        -0.037138        -0.505162
 C         2.623055        -0.902946         0.820528
 O         3.363490         0.340494         0.734067
 H         3.038794         2.878193         1.832842
 H         2.270072         2.812724         0.202376
 H         1.312284         3.198112         1.600759
 H         3.127131         0.568052         3.254374
 H         1.308502         0.426653         3.455360
 H         2.202723        -1.869650         3.038209
 H         0.435237         1.070920        -0.771016
 H         0.808807        -0.578350        -1.424171
 H        -0.569260        -0.447078        -0.177165
 H         3.002051        -1.769857         0.263281
