19
Iteration:  4826charge 0 multiplicity 1
 C         1.233672         2.411220         1.680319
 C         1.819804         1.001651         1.617261
 C         1.781307         0.005362         2.799323
 C         2.205506        -1.184759         2.011883
 O         1.074556        -1.311023         1.153735
 C         1.608833        -0.213177         0.500932
 C         0.859726        -0.185629        -0.863783
 C         3.113704        -0.461122         0.943626
 O         3.247155         0.919080         1.348568
 H         0.352340         2.567353         2.275917
 H         1.911181         3.120641         2.207969
 H         1.100367         2.845152         0.613945
 H         2.517685         0.259384         3.632111
 H         0.757250        -0.132857         3.166987
 H         2.222185        -2.184827         2.505884
 H        -0.255233        -0.155028        -0.758501
 H         1.156762         0.780342        -1.372951
 H         1.236994        -1.032759        -1.562671
 H         3.974542        -0.829823         0.315772
