19
Iteration:  1968charge 0 multiplicity 1
 C         2.511981         2.365066         0.928121
 C         2.430278         0.940469         1.303821
 C         2.479374         0.367315         2.757558
 C         1.970253        -0.926635         2.406265
 O         0.610983        -0.776641         2.021808
 C         1.097559        -0.179320         0.865454
 C         0.179454         0.113320        -0.276669
 C         2.373627        -0.965319         0.783160
 O         3.244471         0.063368         0.477208
 H         1.578570         2.598924         0.373435
 H         2.449892         3.023893         1.800992
 H         3.296673         2.582950         0.172615
 H         3.520717         0.421504         3.102170
 H         1.845731         1.101412         3.392586
 H         2.167404        -1.810589         3.072078
 H        -0.556840         0.978763        -0.215392
 H         0.712072         0.063586        -1.320416
 H        -0.434021        -0.810312        -0.442502
 H         2.790516        -1.879549         0.209844
