19
Iteration:  4068
 C         1.468702         2.443369         1.700787
 C         1.921114         1.030986         1.603066
 C         1.783216         0.190794         2.799393
 C         1.952352        -1.163161         2.141003
 O         0.815772        -1.219258         1.200307
 C         1.530063        -0.209524         0.460312
 C         0.949612        -0.174921        -1.003987
 C         2.987859        -0.617094         1.004135
 O         3.457058         0.707841         1.266929
 H         0.524022         2.739011         1.249107
 H         1.290141         2.728244         2.719465
 H         2.170468         3.232478         1.341223
 H         2.496080         0.545483         3.596384
 H         0.872440         0.401571         3.260697
 H         2.439742        -1.998655         2.655788
 H         1.291155        -1.193155        -1.275020
 H        -0.126258        -0.119630        -1.096073
 H         1.385497         0.546484        -1.619141
 H         3.759808        -1.260016         0.568145
