19
Iteration:  3643charge 0 multiplicity 1
 C         1.240990         2.249100         1.359167
 C         1.875480         0.952317         1.551879
 C         1.754698         0.066323         2.865240
 C         2.095225        -1.191273         2.186531
 O         0.859574        -1.301445         1.287349
 C         1.523054        -0.191373         0.620464
 C         1.207748         0.262954        -0.846195
 C         2.963000        -0.651703         1.013389
 O         3.360180         0.744429         1.228915
 H         0.165244         2.165427         0.998054
 H         1.335353         3.023248         2.180896
 H         1.811905         2.733442         0.518657
 H         2.466472         0.605582         3.468172
 H         0.706313         0.022244         3.354394
 H         2.440234        -2.185885         2.529983
 H         1.207854        -0.492961        -1.592492
 H         0.441133         1.061467        -0.749125
 H         2.090251         0.863786        -1.098563
 H         3.479157        -1.401823         0.467016
