19
Iteration:  1789
 C         2.547131         2.238696         0.861870
 C         2.302948         0.893830         1.172899
 C         2.581620         0.443496         2.656417
 C         2.029019        -0.970836         2.425494
 O         0.614977        -0.686539         2.127712
 C         1.105666        -0.116401         0.861253
 C         0.093915         0.188438        -0.251936
 C         2.328404        -1.051285         0.872202
 O         3.255840         0.016898         0.468691
 H         3.605009         2.358352         1.073351
 H         2.482051         2.428931        -0.213453
 H         1.896366         2.919378         1.358460
 H         3.720689         0.526801         2.777255
 H         2.102327         1.019663         3.406047
 H         2.175923        -1.628621         3.266064
 H         0.519026         0.748027        -1.106261
 H        -0.430390        -0.718106        -0.496552
 H        -0.654242         0.953421         0.178600
 H         2.351430        -1.969804         0.375923
