19
Iteration:  2853charge 0 multiplicity 1
 C         1.619199         2.482152         1.259638
 C         2.037005         1.016283         1.463685
 C         2.097667         0.198950         2.890551
 C         2.028069        -1.143454         2.241180
 O         0.772730        -1.094023         1.557878
 C         1.367765        -0.283782         0.641032
 C         0.755182         0.065515        -0.724212
 C         2.832404        -0.787694         0.843417
 O         3.406407         0.502471         1.005796
 H         0.944780         2.833278         0.337421
 H         1.002191         2.862821         2.128527
 H         2.648291         2.924490         1.308724
 H         3.009974         0.392428         3.469010
 H         1.151944         0.355319         3.559453
 H         2.224450        -2.012402         2.880098
 H        -0.311156         0.000007        -0.556192
 H         0.829689         1.146806        -0.896070
 H         0.970957        -0.622477        -1.629807
 H         3.398846        -1.552702         0.334124
