19
Iteration:  3353charge 0 multiplicity 1
 C         1.235638         2.339550         1.446954
 C         1.858994         0.939968         1.564191
 C         1.702643         0.119832         2.852479
 C         2.033978        -1.201865         2.145850
 O         0.969336        -1.287157         1.234748
 C         1.607764        -0.164650         0.533153
 C         1.134815         0.119685        -0.850645
 C         2.971341        -0.655970         1.004329
 O         3.419741         0.762406         1.285034
 H         1.305918         2.855655         0.472092
 H         0.160415         2.148430         1.461990
 H         1.496537         2.943272         2.350393
 H         2.192327         0.636727         3.707922
 H         0.726735         0.086030         3.221731
 H         2.299764        -2.088931         2.758214
 H         0.309859        -0.525547        -1.152911
 H         0.721954         1.074975        -1.043764
 H         1.969415        -0.002591        -1.508392
 H         3.643881        -1.248084         0.399286
