19
Iteration:  1214
 C         2.686695         2.401696         0.790504
 C         2.436549         0.880732         1.137457
 C         2.647855         0.435543         2.653431
 C         2.064919        -1.001113         2.368773
 O         0.574083        -0.600296         2.255935
 C         0.997456        -0.071512         0.948226
 C         0.097423         0.186549        -0.166211
 C         2.171583        -1.122348         0.880311
 O         3.151214        -0.114113         0.360754
 H         2.502225         3.121821         1.665663
 H         3.852277         2.421849         0.625009
 H         2.064730         2.699877        -0.066804
 H         3.756881         0.518629         2.895811
 H         1.958957         0.875411         3.426070
 H         2.321976        -1.899138         3.032278
 H        -0.520216        -0.722928        -0.500845
 H        -0.450503         1.138958        -0.330123
 H         0.874917         0.265432        -0.973208
 H         2.361058        -2.067516         0.353293
