19
Iteration:   139charge 0 multiplicity 1
 C         2.589185         2.352569         0.732757
 C         2.374504         0.847738         1.151458
 C         2.787549         0.257134         2.672717
 C         1.967648        -0.948401         2.470725
 O         0.547342        -0.420292         2.093542
 C         1.131943        -0.049761         0.865104
 C        -0.000620         0.180718        -0.087716
 C         2.260403        -1.068672         0.847271
 O         3.233919        -0.186413         0.430364
 H         2.078392         2.954867         1.539779
 H         3.635280         2.636749         0.661218
 H         2.063978         2.659297        -0.231732
 H         3.969579         0.129235         2.568042
 H         2.613066         0.862106         3.576745
 H         1.906200        -1.780600         3.091762
 H        -0.504496        -0.805735        -0.240022
 H        -0.774805         0.855754         0.695753
 H         0.402572         0.797925        -1.001226
 H         2.347313        -2.019808         0.465028
