19
Iteration:  2807
 C         1.815581         2.524469         1.403864
 C         2.073314         1.015435         1.439983
 C         2.062024         0.301950         2.882945
 C         2.000883        -1.136322         2.222439
 O         0.761862        -1.167320         1.543255
 C         1.388537        -0.204972         0.636788
 C         0.636281        -0.080579        -0.683504
 C         2.741714        -0.760022         0.827432
 O         3.401162         0.498510         0.946278
 H         2.285632         3.040696         0.522462
 H         0.740332         2.629781         1.065009
 H         2.030290         3.025894         2.364175
 H         2.979414         0.569537         3.370461
 H         1.150465         0.482432         3.521622
 H         2.274739        -1.997952         2.851883
 H         0.222404        -0.976170        -1.066572
 H        -0.092299         0.735820        -0.711203
 H         1.434332         0.209066        -1.397722
 H         3.326298        -1.499660         0.225793
