19
Iteration:  1622charge 0 multiplicity 1
 C         2.531186         2.311886         0.761264
 C         2.450687         0.840441         1.223894
 C         2.734238         0.440610         2.640313
 C         1.968092        -0.930399         2.382332
 O         0.616265        -0.635238         2.076137
 C         1.126964        -0.002353         0.843197
 C         0.021922         0.231107        -0.054224
 C         2.256605        -1.103555         0.842776
 O         3.202890        -0.166899         0.494736
 H         1.516663         2.543582         0.733126
 H         3.032230         2.996500         1.371993
 H         2.994079         2.561910        -0.201351
 H         3.802593         0.275435         2.664968
 H         2.349841         1.139814         3.403195
 H         2.000505        -1.729750         3.189122
 H        -0.826468         0.455191         0.525410
 H         0.237046         1.163147        -0.572182
 H         0.117956        -0.476779        -0.862664
 H         2.160381        -2.115863         0.280299
