19
Iteration:  4001
 C         1.477090         2.411745         1.317022
 C         1.902090         0.939094         1.608118
 C         1.663215         0.160812         2.898656
 C         2.106748        -1.194164         2.182730
 O         0.978710        -1.428761         1.276084
 C         1.578751        -0.279876         0.544954
 C         1.042515         0.305616        -0.795312
 C         2.895710        -0.630699         0.954308
 O         3.259642         0.680695         1.263862
 H         0.404024         2.450120         1.206734
 H         1.694569         3.118134         2.128916
 H         1.945360         2.633881         0.308041
 H         2.355507         0.361906         3.711770
 H         0.641644         0.411171         3.183450
 H         2.347492        -2.201984         2.703464
 H         0.811923        -0.490765        -1.488449
 H         0.215724         1.035575        -0.733679
 H         1.793304         0.829867        -1.304622
 H         3.568573        -1.296792         0.462059
