19
Iteration:  2514
 C         1.946434         2.480705         1.132373
 C         2.142445         1.019038         1.372700
 C         2.263191         0.251240         2.907199
 C         2.052130        -1.156170         2.266604
 O         0.665584        -0.929657         1.745114
 C         1.272288        -0.198397         0.699687
 C         0.531202         0.060175        -0.480074
 C         2.691509        -0.933976         0.796457
 O         3.306036         0.363811         0.781569
 H         2.643312         2.768918         0.377788
 H         0.925304         2.590748         0.673616
 H         1.947401         2.950405         2.121671
 H         3.276860         0.713431         3.247396
 H         1.524966         0.294498         3.709480
 H         2.230617        -2.109072         2.785551
 H         1.259563        -0.059496        -1.305648
 H        -0.398717        -0.504893        -0.633718
 H         0.426821         1.182250        -0.674829
 H         3.398506        -1.605131         0.271978
