19
Iteration:  4277charge 0 multiplicity 1
 C         1.338540         2.299279         1.501313
 C         1.929305         0.971718         1.514773
 C         1.796044         0.217055         2.856315
 C         2.017332        -1.136350         2.155854
 O         0.920022        -1.262950         1.221592
 C         1.609994        -0.209415         0.445347
 C         0.945087         0.131432        -0.860275
 C         2.987815        -0.651481         1.018678
 O         3.428977         0.691813         1.352213
 H         0.263016         1.922459         1.205006
 H         1.222784         3.094590         2.284335
 H         1.596928         2.641264         0.487457
 H         2.491264         0.286066         3.738207
 H         0.727666         0.124795         3.166639
 H         2.213455        -2.056602         2.649298
 H         0.223828         0.892575        -0.678034
 H         1.730726         0.382605        -1.545604
 H         0.365021        -0.730803        -1.299532
 H         3.687587        -1.438431         0.567544
