19
Iteration:  2821
 C         1.725537         2.355352         1.317942
 C         2.096956         0.982688         1.539000
 C         2.114008         0.250207         2.842244
 C         2.066980        -1.069792         2.233562
 O         0.704546        -1.131033         1.543759
 C         1.314061        -0.148181         0.601566
 C         0.719269        -0.040293        -0.731796
 C         2.750894        -0.736345         0.863605
 O         3.423174         0.558745         0.970742
 H         2.287714         2.820228         0.399216
 H         0.671243         2.569482         1.606823
 H         2.353557         2.927638         2.086112
 H         2.974907         0.381786         3.524264
 H         1.140078         0.452645         3.478978
 H         2.226362        -1.977470         2.802034
 H        -0.029575        -0.815994        -0.513194
 H         0.000380         0.807017        -0.827560
 H         1.381417        -0.161108        -1.681180
 H         3.079295        -1.526598         0.234650
