19
Iteration:   988charge 0 multiplicity 1
 C         2.647262         2.249195         0.672379
 C         2.328665         0.800687         1.136189
 C         2.541917         0.488272         2.633432
 C         2.049780        -1.021774         2.432005
 O         0.643492        -0.626386         2.212789
 C         1.116320        -0.142269         0.933496
 C         0.174600         0.384977        -0.079141
 C         2.231386        -1.115741         0.899938
 O         3.151647        -0.094253         0.350219
 H         2.564054         2.784113         1.638583
 H         3.673210         2.326481         0.426180
 H         2.128142         2.760932        -0.150160
 H         3.508535         0.659688         3.043484
 H         1.674992         1.073195         3.244839
 H         2.268489        -1.876491         3.088612
 H        -0.689374        -0.276655        -0.408644
 H        -0.365696         1.204093         0.447238
 H         0.538809         0.767979        -0.986217
 H         2.462087        -2.183223         0.446966
