19
Iteration:   938
 C         2.617347         2.256048         0.660529
 C         2.470555         0.846905         1.206040
 C         2.752503         0.310887         2.675175
 C         1.933703        -0.988721         2.405682
 O         0.604856        -0.425992         2.120937
 C         1.126987         0.018445         0.913594
 C        -0.081267         0.189254        -0.034225
 C         2.239649        -1.112783         0.825264
 O         3.264070        -0.123980         0.476669
 H         1.706008         2.934558         0.923315
 H         3.517863         2.850981         1.032886
 H         2.368620         2.245354        -0.448621
 H         3.870847         0.310205         2.804402
 H         2.258895         0.711567         3.510722
 H         1.994918        -1.924724         3.106281
 H        -0.192815        -0.606352        -0.742465
 H        -1.059912         0.439071         0.435670
 H         0.072614         0.968861        -0.860654
 H         2.417830        -1.929086         0.197020
