19
Iteration:  2704charge 0 multiplicity 1
 C         1.783299         2.364803         1.277929
 C         2.100802         0.921548         1.449744
 C         2.176512         0.325268         2.874003
 C         2.017600        -1.058056         2.294777
 O         0.700324        -1.075066         1.583745
 C         1.417837        -0.220369         0.627164
 C         0.632115         0.111861        -0.581193
 C         2.730106        -0.861088         0.829549
 O         3.380156         0.441018         0.868443
 H         1.559840         2.916485         2.192996
 H         2.509942         2.833096         0.640172
 H         0.846377         2.506517         0.645475
 H         3.078124         0.647415         3.427412
 H         1.302059         0.679412         3.398145
 H         2.129604        -2.033025         2.810773
 H         0.773718         1.130098        -1.022809
 H         0.849604        -0.563052        -1.416457
 H        -0.407052         0.079683        -0.232357
 H         3.352155        -1.623442         0.394574
