19
Iteration:   928charge 0 multiplicity 1
 C         2.572772         2.251731         0.719416
 C         2.429078         0.877481         1.224997
 C         2.671709         0.287380         2.611832
 C         1.961779        -0.986019         2.375919
 O         0.638629        -0.369093         2.202337
 C         1.116340        -0.022315         0.882920
 C         0.015675         0.167121        -0.065951
 C         2.217757        -1.070974         0.745933
 O         3.260245        -0.151018         0.442562
 H         1.614569         2.838342         0.954564
 H         3.500399         2.833732         1.130450
 H         2.884804         2.219621        -0.401072
 H         3.805705         0.118231         2.880017
 H         2.211527         0.882993         3.361891
 H         1.935269        -1.674213         3.302084
 H        -0.119408        -0.843094        -0.445094
 H        -0.836881         0.271469         0.631746
 H         0.170557         1.110694        -0.682880
 H         2.199105        -2.045096         0.346894
