19
Iteration:   567
 C         2.493206         2.286953         0.863444
 C         2.418955         0.864542         1.145824
 C         2.778142         0.413902         2.622845
 C         1.996868        -0.978891         2.469205
 O         0.566070        -0.493237         2.226949
 C         1.064279        -0.102688         0.858073
 C         0.122053         0.250663        -0.223413
 C         2.230498        -1.137848         0.881474
 O         3.226050        -0.185402         0.370553
 H         1.800896         3.028927         1.448922
 H         3.443274         2.729781         1.129448
 H         2.196371         2.597979        -0.143296
 H         3.892853         0.244034         2.685133
 H         2.348583         1.149329         3.352127
 H         2.169876        -1.740458         3.125280
 H        -0.797327        -0.270236        -0.336419
 H        -0.145826         1.389966        -0.173699
 H         0.583257         0.101641        -1.168355
 H         2.151515        -2.100902         0.453442
