19
Iteration:  3449charge 0 multiplicity 1
 C         1.342119         2.382958         1.538484
 C         1.860282         0.944962         1.522947
 C         1.750808         0.138790         2.803723
 C         1.991246        -1.191544         2.230470
 O         0.960044        -1.345207         1.187852
 C         1.627929        -0.218115         0.484286
 C         1.136155         0.098258        -0.931883
 C         2.961869        -0.598772         1.050499
 O         3.267969         0.773823         1.311763
 H         0.424398         2.510199         0.969014
 H         1.116040         2.725737         2.522246
 H         2.120563         3.004019         1.129185
 H         2.421993         0.461327         3.588540
 H         0.735107        -0.001641         3.243752
 H         2.157103        -2.146632         2.762127
 H         1.237892        -0.766957        -1.595246
 H         0.131242         0.577287        -1.042004
 H         1.922207         0.839415        -1.228684
 H         3.624575        -1.297416         0.611344
