19
Iteration:  3386
 C         1.418050         2.367958         1.512630
 C         1.864479         0.997849         1.602848
 C         1.649501         0.116979         2.822464
 C         1.936492        -1.166363         2.135458
 O         0.997365        -1.376878         1.157815
 C         1.640019        -0.256630         0.382251
 C         0.930398        -0.028388        -0.962963
 C         3.062119        -0.561913         1.086218
 O         3.367815         0.867877         1.458933
 H         1.006875         2.695432         0.546017
 H         0.688022         2.484486         2.305578
 H         2.243356         3.072399         1.804236
 H         2.443959         0.522175         3.529120
 H         0.680993         0.081988         3.181191
 H         2.319644        -2.107624         2.544618
 H         0.185462        -0.791802        -1.255683
 H         0.595301         0.965250        -0.941257
 H         1.699954         0.008213        -1.692290
 H         3.868239        -0.978147         0.504879
