19
Iteration:   661charge 0 multiplicity 1
 C         2.682538         2.185074         0.635517
 C         2.325041         0.891458         1.250677
 C         2.623842         0.414483         2.672496
 C         2.011726        -0.912926         2.444724
 O         0.574800        -0.648371         2.119227
 C         1.083702        -0.152035         0.928225
 C         0.030254         0.335893        -0.056647
 C         2.310525        -1.084926         0.833565
 O         3.189903        -0.063848         0.425620
 H         2.253616         3.107452         1.023908
 H         3.745011         2.405976         0.795403
 H         2.415385         2.233883        -0.429750
 H         3.662099         0.275794         2.757592
 H         2.181333         1.126704         3.455233
 H         2.230513        -1.807727         3.122070
 H        -0.559130        -0.466969        -0.594147
 H        -0.594150         1.055550         0.444288
 H         0.565384         0.844825        -0.830352
 H         2.612025        -2.070325         0.378540
