19
Iteration:  2290
 C         2.271788         2.522034         1.124073
 C         2.234033         0.963161         1.344994
 C         2.350028         0.415990         2.740173
 C         1.971970        -1.063689         2.321640
 O         0.592036        -0.931188         1.855797
 C         1.221145        -0.193756         0.707044
 C         0.324916        -0.016731        -0.368361
 C         2.615362        -0.946912         0.806621
 O         3.359589         0.226269         0.655903
 H         1.835412         2.663089         0.096600
 H         1.587474         2.996117         1.862381
 H         3.237051         2.966568         1.293283
 H         3.306097         0.632624         3.178747
 H         1.520343         0.726048         3.523692
 H         2.125470        -1.930997         2.961535
 H         0.734734        -0.052640        -1.438844
 H        -0.548904        -0.682365        -0.249178
 H        -0.177949         1.053199        -0.386565
 H         2.859361        -1.818970         0.193034
