19
Iteration:  3289charge 0 multiplicity 1
 C         1.400426         2.427236         1.571031
 C         1.890820         0.980627         1.572366
 C         1.730209         0.170662         2.836368
 C         2.078431        -1.195630         2.157707
 O         0.896973        -1.402446         1.231610
 C         1.508875        -0.253893         0.486549
 C         1.066907         0.006199        -0.880653
 C         2.998755        -0.545120         0.953594
 O         3.335752         0.817608         1.276219
 H         2.125462         3.248586         1.714042
 H         1.040055         2.579212         0.523045
 H         0.411470         2.421340         2.139924
 H         2.468623         0.547434         3.665719
 H         0.728340         0.125056         3.121927
 H         2.274311        -2.082352         2.821627
 H         0.719631        -0.995599        -1.254703
 H         0.342007         0.791605        -0.936130
 H         1.940006         0.281890        -1.457165
 H         3.718570        -1.197979         0.510245
