19
Iteration:  1445charge 0 multiplicity 1
 C         2.599729         2.218234         0.591724
 C         2.393880         0.875026         1.234388
 C         2.617239         0.395886         2.649903
 C         2.048319        -1.054450         2.449790
 O         0.557306        -0.583685         2.168503
 C         1.118055        -0.062360         0.975337
 C         0.157007         0.326676        -0.125030
 C         2.239746        -1.067120         0.839353
 O         3.182990        -0.055378         0.445877
 H         2.469732         3.048102         1.317822
 H         3.546942         2.316764         0.076256
 H         1.746709         2.324811        -0.079029
 H         3.606251         0.319599         3.072499
 H         1.956524         1.002472         3.463386
 H         2.253715        -1.981559         2.971381
 H         0.002104        -0.632596        -0.646790
 H        -0.779069         0.662116         0.444671
 H         0.542165         1.096166        -0.822136
 H         2.287218        -2.074152         0.330291
