19
Iteration:  2794
 C         1.862750         2.590848         1.405877
 C         2.067871         1.021748         1.492947
 C         2.000567         0.317825         2.768708
 C         2.115031        -1.164392         2.302826
 O         0.757437        -1.137833         1.545340
 C         1.316396        -0.324741         0.567376
 C         0.621289        -0.004967        -0.697048
 C         2.820378        -0.842331         0.878093
 O         3.333347         0.510642         0.924082
 H         2.678296         2.964424         0.867500
 H         0.857564         2.828690         1.000704
 H         1.790404         3.093089         2.399891
 H         2.924879         0.606415         3.307121
 H         1.189372         0.550788         3.374413
 H         2.255208        -2.105278         2.903807
 H         0.568123        -0.998204        -1.243393
 H        -0.368021         0.390680        -0.466032
 H         1.155811         0.663998        -1.291192
 H         3.422501        -1.649672         0.345417
