19
Iteration:  1126charge 0 multiplicity 1
 C         2.554515         2.148247         0.666065
 C         2.402880         0.836626         1.231394
 C         2.695248         0.378827         2.659949
 C         2.012988        -0.990463         2.386357
 O         0.585715        -0.582521         2.158553
 C         1.091557        -0.006154         0.934229
 C         0.038718         0.371592        -0.053755
 C         2.304456        -1.067247         0.871260
 O         3.205861        -0.102619         0.394773
 H         1.612979         2.714841         0.570037
 H         3.324508         2.920379         1.119911
 H         2.927782         1.870400        -0.337817
 H         3.768698         0.472355         2.981354
 H         2.096272         0.877399         3.324034
 H         2.146088        -1.805431         3.018124
 H        -0.349463        -0.529881        -0.608712
 H        -0.765169         0.760916         0.565832
 H         0.537549         0.990324        -0.801340
 H         2.396245        -1.929295         0.312364
