19
Iteration:   829
 C         2.487536         2.263060         0.612726
 C         2.507163         0.863258         1.196065
 C         2.694991         0.378333         2.659172
 C         1.946072        -0.961197         2.414489
 O         0.598781        -0.570374         2.132794
 C         1.102717        -0.037273         0.930992
 C        -0.101837         0.338144        -0.080034
 C         2.264169        -1.108269         0.816665
 O         3.392096        -0.171908         0.508188
 H         1.494812         2.849316         0.765085
 H         3.277064         2.907490         1.170306
 H         2.964750         2.255884        -0.415585
 H         3.918119         0.405829         2.874408
 H         2.120974         0.824647         3.512920
 H         2.017765        -1.943924         2.951687
 H        -0.868582        -0.224660         0.443495
 H        -0.269991         1.471626         0.063288
 H         0.096067        -0.090239        -1.132761
 H         2.158798        -1.977057         0.252443
