19
Iteration:   757charge 0 multiplicity 1
 C         2.607810         2.317255         0.733832
 C         2.367891         0.888800         1.201704
 C         2.752523         0.411964         2.640844
 C         2.034880        -0.980851         2.396061
 O         0.580049        -0.586472         2.228214
 C         1.095079        -0.040279         0.980171
 C         0.166113         0.194855        -0.220562
 C         2.122403        -1.070064         0.849197
 O         3.118493        -0.116499         0.436107
 H         2.619251         3.076713         1.450998
 H         3.661462         2.350502         0.291199
 H         1.881828         2.620874        -0.047374
 H         3.808508         0.374589         2.828765
 H         2.272104         1.009380         3.338353
 H         2.183083        -1.867488         3.135896
 H        -0.257972        -0.816563        -0.493212
 H        -0.459433         0.977201         0.014326
 H         0.963376         0.378319        -0.985926
 H         1.947884        -2.077314         0.210326
