19
Iteration:  3536
 C         1.549298         2.490526         1.501080
 C         1.828495         1.034417         1.552872
 C         1.603084         0.103572         2.858081
 C         2.008091        -1.271127         2.156314
 O         1.000431        -1.471683         1.179941
 C         1.583236        -0.212536         0.501307
 C         1.117924         0.083495        -0.906887
 C         2.950030        -0.568735         1.019002
 O         3.217699         0.824590         1.341782
 H         0.646221         2.666422         2.090291
 H         2.358693         3.080152         1.875713
 H         1.338684         2.721663         0.459398
 H         2.357025         0.478057         3.557155
 H         0.655347         0.082854         3.381138
 H         2.363896        -2.132768         2.775011
 H         1.660689        -0.590670        -1.616381
 H         0.104230        -0.292311        -1.108262
 H         1.252326         1.113100        -1.237663
 H         3.671349        -1.247628         0.632640
