19
Iteration:  4658charge 0 multiplicity 1
 C         1.387568         2.467274         1.494223
 C         1.771840         0.981853         1.658338
 C         1.702209         0.082324         2.866318
 C         2.273748        -1.223388         2.166318
 O         1.106845        -1.533095         1.213824
 C         1.502918        -0.231657         0.471458
 C         0.858224         0.110931        -0.858484
 C         3.034352        -0.480715         0.881116
 O         3.269116         0.827603         1.320970
 H         0.295589         2.604416         1.318236
 H         1.390981         3.052620         2.434134
 H         1.973779         2.931156         0.737619
 H         2.198184         0.593658         3.655655
 H         0.658626        -0.241832         3.127292
 H         2.542444        -2.164575         2.594668
 H         1.759703         0.203990        -1.496886
 H         0.246629        -0.712961        -1.300169
 H         0.282135         1.040816        -0.841243
 H         3.857486        -1.061604         0.401842
