19
Iteration:     6charge 0 multiplicity 1
 C         2.610816         2.254439         0.690744
 C         2.431068         0.844293         1.143790
 C         2.699763         0.382369         2.621719
 C         1.970250        -0.947464         2.410737
 O         0.619706        -0.519386         2.209554
 C         1.072501        -0.023715         0.902571
 C         0.050044         0.281797        -0.033292
 C         2.227003        -1.115021         0.828003
 O         3.238830        -0.159218         0.425385
 H         1.829626         2.822721         1.239039
 H         3.638545         2.617582         0.815970
 H         2.293301         2.480013        -0.350832
 H         3.770621         0.256958         2.914369
 H         2.030211         0.866096         3.366052
 H         1.985900        -1.801314         3.130630
 H        -0.581889        -0.602204        -0.364007
 H        -0.562737         1.149217         0.272269
 H         0.553470         0.558174        -1.034142
 H         2.139302        -2.171796         0.422691
