19
Iteration:  3700
 C         1.469379         2.395269         1.531208
 C         1.890368         0.963222         1.539787
 C         1.647829         0.102449         2.861877
 C         1.999305        -1.182810         2.142285
 O         0.952971        -1.254822         1.169539
 C         1.588514        -0.179473         0.487658
 C         0.986343        -0.003719        -0.882586
 C         3.039555        -0.583418         0.955764
 O         3.329047         0.765495         1.393834
 H         0.396722         2.554305         1.740526
 H         1.942321         3.000722         2.310681
 H         1.650462         2.779590         0.461531
 H         2.343103         0.534826         3.659455
 H         0.625654         0.002068         3.082819
 H         2.296573        -2.156953         2.697453
 H         1.196631        -0.978163        -1.462746
 H        -0.078980        -0.078902        -0.816309
 H         1.482333         0.759284        -1.438717
 H         3.764335        -1.277499         0.458696
