19
Iteration:  3001
 C         1.630268         2.395064         1.381544
 C         1.985524         0.961534         1.548194
 C         2.013010         0.266935         2.891014
 C         2.047589        -1.107701         2.275010
 O         0.806800        -1.274549         1.432196
 C         1.390887        -0.269539         0.557865
 C         0.896992         0.082692        -0.796795
 C         2.826463        -0.703008         0.915063
 O         3.302511         0.635972         1.022086
 H         2.044646         3.020069         2.135356
 H         1.806489         2.784470         0.361215
 H         0.531969         2.456877         1.480227
 H         2.850540         0.445117         3.496956
 H         1.024125         0.355423         3.412321
 H         2.286887        -2.009807         2.895149
 H         1.378463        -0.470804        -1.613147
 H        -0.191596        -0.152783        -0.785282
 H         1.107743         1.141317        -0.938347
 H         3.502234        -1.425383         0.361175
