19
Iteration:  1248charge 0 multiplicity 1
 C         2.565129         2.243938         0.794076
 C         2.374362         0.883459         1.246590
 C         2.772585         0.373473         2.655997
 C         1.974723        -0.951002         2.406441
 O         0.555307        -0.526390         2.140264
 C         1.120421        -0.043761         0.911767
 C         0.070396         0.184821        -0.163038
 C         2.262686        -1.125123         0.802901
 O         3.182007        -0.019335         0.447940
 H         2.399225         3.122042         1.525891
 H         3.637342         2.257689         0.350946
 H         1.981430         2.290169        -0.152269
 H         3.826379         0.236082         2.667933
 H         2.447125         0.945471         3.624220
 H         1.992815        -1.936604         3.036548
 H        -0.875441        -0.360318         0.127490
 H        -0.195938         1.270249        -0.337927
 H         0.501335        -0.332587        -0.991877
 H         2.366602        -2.104583         0.224988
