19
Iteration:   599charge 0 multiplicity 1
 C         2.481312         2.310875         0.893640
 C         2.389577         0.785408         1.136627
 C         2.729218         0.416207         2.596653
 C         1.993321        -0.945418         2.514843
 O         0.597091        -0.453093         2.154264
 C         1.165309        -0.053319         0.816662
 C         0.066467         0.239850        -0.165271
 C         2.242516        -1.160496         0.882353
 O         3.246462        -0.200092         0.343607
 H         1.449338         2.654804         1.322126
 H         3.221041         2.719863         1.564004
 H         2.729936         2.508126        -0.151936
 H         3.851473         0.245951         2.740997
 H         2.287457         1.200913         3.322275
 H         2.142303        -1.665676         3.252929
 H        -0.845525        -0.262725         0.193827
 H        -0.127667         1.440563        -0.200937
 H         0.297721        -0.002170        -1.188659
 H         2.253326        -2.071593         0.407655
