19
Iteration:   480
 C         2.661345         2.321926         0.776846
 C         2.439757         0.854102         1.098982
 C         2.594940         0.490891         2.575321
 C         2.017310        -0.895445         2.374331
 O         0.529064        -0.580389         2.152371
 C         1.143125        -0.098867         0.873109
 C        -0.033141         0.273723        -0.025527
 C         2.269587        -1.108373         0.800417
 O         3.324133        -0.268024         0.460769
 H         2.073090         2.840617         1.686044
 H         3.711067         2.522162         1.076767
 H         2.261610         2.407524        -0.237736
 H         3.629016         0.548131         2.992788
 H         1.712303         0.945468         3.122099
 H         2.226857        -1.439022         3.230869
 H        -0.469186        -0.554293        -0.493772
 H        -0.750746         0.723176         0.750752
 H         0.187538         1.060807        -0.661149
 H         2.224439        -2.105267         0.373265
