19
Iteration:  1397
 C         2.604510         2.195571         0.857301
 C         2.385751         0.811821         1.140084
 C         2.716939         0.439532         2.570202
 C         1.985474        -0.870528         2.392241
 O         0.558251        -0.504603         2.150404
 C         1.087530        -0.103929         0.836530
 C        -0.021678         0.216238        -0.129137
 C         2.305654        -1.120141         0.908788
 O         3.238287        -0.113344         0.430467
 H         2.068728         2.860659         1.525426
 H         3.705986         2.262154         1.059520
 H         2.478912         2.449550        -0.193250
 H         3.914510         0.561086         2.627764
 H         2.292515         1.126705         3.302616
 H         2.018226        -1.638194         3.219406
 H        -0.166608        -0.625917        -0.924120
 H        -0.858804         0.306446         0.582817
 H         0.185909         1.262126        -0.501864
 H         2.408496        -2.063453         0.432083
