19
Iteration:    77
 C         2.712565         2.308638         0.707768
 C         2.383623         0.874110         1.169130
 C         2.641446         0.435075         2.555164
 C         2.003758        -0.975273         2.472811
 O         0.614234        -0.637721         2.288488
 C         1.095954        -0.097277         0.943942
 C         0.141962         0.357517        -0.103466
 C         2.197553        -1.154535         0.884409
 O         3.105732        -0.164430         0.311918
 H         1.891654         3.003110         1.023128
 H         3.764891         2.632244         0.955498
 H         2.582408         2.384434        -0.411007
 H         3.705453         0.571510         2.827906
 H         1.885233         1.017441         3.152044
 H         2.231968        -1.666272         3.318487
 H         0.006018        -0.255755        -0.961923
 H        -0.780758         0.498524         0.368735
 H         0.414507         1.246272        -0.507432
 H         2.219222        -2.147652         0.414406
