19
Iteration:   922charge 0 multiplicity 1
 C         2.573385         2.282722         0.747725
 C         2.419819         0.845988         1.194159
 C         2.671139         0.326649         2.604577
 C         1.970539        -0.967832         2.390934
 O         0.640612        -0.383174         2.237996
 C         1.125875        -0.037930         0.882213
 C         0.064989         0.171691        -0.068970
 C         2.207157        -1.053982         0.766203
 O         3.243705        -0.171269         0.411781
 H         1.682742         2.766355         0.924075
 H         3.345838         2.717162         1.323999
 H         2.945463         2.162985        -0.215006
 H         3.726792         0.158905         2.778155
 H         2.183029         1.004929         3.396643
 H         1.981811        -1.703048         3.109423
 H        -0.174603        -0.790522        -0.659143
 H        -0.772855         0.348327         0.598748
 H         0.101500         0.944559        -0.787208
 H         2.007480        -2.101520         0.272013
