19
Iteration:   607charge 0 multiplicity 1
 C         2.488159         2.299281         0.866287
 C         2.463521         0.835667         1.180008
 C         2.736321         0.397900         2.614700
 C         1.972724        -0.912188         2.423668
 O         0.616661        -0.483883         2.179866
 C         1.141539        -0.075307         0.890505
 C         0.016568         0.232161        -0.186210
 C         2.229745        -1.124159         0.876811
 O         3.274860        -0.222138         0.351154
 H         1.457193         2.716486         1.032848
 H         3.278496         2.792212         1.454903
 H         2.684177         2.577780        -0.199392
 H         3.767316         0.491905         2.905176
 H         2.145448         1.075989         3.408296
 H         1.960139        -1.822404         3.136431
 H        -1.010095        -0.234051         0.083062
 H        -0.120047         1.385789        -0.108704
 H         0.403462        -0.059694        -1.163812
 H         2.159993        -2.035201         0.303322
