19
Iteration:  4925
 C         1.118822         2.312163         1.400823
 C         1.832425         0.914823         1.626732
 C         1.896857         0.065845         2.910260
 C         2.253685        -1.244961         2.085065
 O         1.024313        -1.430095         1.217512
 C         1.588517        -0.234415         0.533613
 C         0.878109         0.202368        -0.776412
 C         2.986991        -0.529179         0.870267
 O         3.362640         0.898534         1.323052
 H         0.061166         2.141733         1.105488
 H         0.992389         2.811473         2.348697
 H         1.587731         3.094714         0.753115
 H         2.640730         0.357825         3.665701
 H         0.927733        -0.140323         3.426717
 H         2.631941        -2.031384         2.679958
 H        -0.123015         0.583759        -0.604117
 H         1.414813         1.038541        -1.322489
 H         0.808645        -0.717574        -1.451373
 H         3.796453        -1.032696         0.282707
