19
Iteration:    67charge 0 multiplicity 1
 C         2.675443         2.288395         0.658464
 C         2.377313         0.869982         1.116480
 C         2.660395         0.391409         2.526998
 C         2.016809        -0.997708         2.486557
 O         0.553296        -0.598554         2.284996
 C         1.062651        -0.167318         0.947876
 C         0.042020         0.415825        -0.113339
 C         2.290583        -1.091924         0.884468
 O         3.180752        -0.146654         0.396782
 H         1.972134         3.026883         1.059004
 H         3.673465         2.620528         1.025871
 H         2.719158         2.200430        -0.426125
 H         3.692559         0.332936         2.739194
 H         2.258646         1.106824         3.290635
 H         2.156011        -1.867734         3.224102
 H        -0.165894        -0.313481        -0.896352
 H        -0.825831         0.500228         0.391369
 H         0.373396         1.358449        -0.461826
 H         2.458831        -2.113253         0.399140
