19
Iteration:  4195charge 0 multiplicity 1
 C         1.560210         2.467288         1.596379
 C         1.833504         1.018491         1.560174
 C         1.656489         0.185108         2.816451
 C         2.046555        -1.185255         2.149094
 O         0.955548        -1.315743         1.199115
 C         1.583996        -0.208702         0.435324
 C         1.008869        -0.052336        -0.928032
 C         2.902485        -0.615306         1.020892
 O         3.303635         0.723694         1.318870
 H         0.798749         2.868500         2.200438
 H         2.533134         2.872251         1.867298
 H         1.497724         2.898510         0.563589
 H         2.437754         0.247481         3.549964
 H         0.640253         0.122999         3.277120
 H         2.282173        -2.028456         2.884019
 H         0.200392        -0.773968        -1.144272
 H         0.486680         0.948223        -0.973318
 H         1.829915        -0.250424        -1.613779
 H         3.622603        -1.300319         0.632523
