19
Iteration:   383charge 0 multiplicity 1
 C         2.505653         2.215936         0.833408
 C         2.451936         0.797864         1.169039
 C         2.663578         0.481745         2.646273
 C         2.012959        -0.939929         2.474003
 O         0.646998        -0.516403         2.180821
 C         1.106295        -0.103408         0.867105
 C         0.028276         0.359521        -0.164069
 C         2.252476        -1.136203         0.855173
 O         3.248080        -0.216017         0.327605
 H         1.661731         2.609108         1.447070
 H         3.448947         2.577291         1.238170
 H         2.328361         2.405789        -0.225765
 H         3.687260         0.690690         2.918358
 H         1.892723         1.001970         3.267842
 H         2.072796        -1.651549         3.250925
 H        -0.910551        -0.159065        -0.068662
 H        -0.057636         1.515033        -0.009243
 H         0.582155         0.179959        -1.090662
 H         2.290386        -2.125569         0.302057
