19
Iteration:  2063
 C         2.234373         2.371025         0.916273
 C         2.246877         0.859793         1.249558
 C         2.570060         0.440205         2.654994
 C         2.079766        -1.063530         2.339512
 O         0.630020        -0.786354         2.011650
 C         1.169703        -0.106333         0.806748
 C         0.147426         0.239106        -0.284984
 C         2.429513        -1.058266         0.769319
 O         3.388091         0.056558         0.711841
 H         1.234380         2.852930         0.601211
 H         2.817193         2.960439         1.699862
 H         2.796875         2.550850        -0.011125
 H         3.574902         0.627788         2.950415
 H         1.800770         0.720307         3.493925
 H         2.058240        -1.884280         3.100415
 H         0.623101         0.093423        -1.281360
 H        -0.779628        -0.317429        -0.176340
 H        -0.049926         1.330011        -0.270043
 H         2.676769        -2.009190         0.244204
