19
Iteration:   691
 C         2.562681         2.324966         0.782152
 C         2.411305         0.864881         1.135898
 C         2.561578         0.477927         2.573884
 C         2.005719        -0.904776         2.402990
 O         0.648172        -0.589013         2.165999
 C         1.119099        -0.033157         0.887173
 C         0.008307         0.300115        -0.060275
 C         2.239157        -1.140188         0.875329
 O         3.317074        -0.301480         0.438317
 H         2.461417         2.873595         1.665809
 H         3.646629         2.615755         0.477040
 H         1.948160         2.754276        -0.034449
 H         3.580009         0.541117         2.894723
 H         1.916194         1.061745         3.111818
 H         2.271545        -1.824210         3.074560
 H        -0.261884        -0.504594        -0.781005
 H        -0.865098         0.677429         0.338013
 H         0.325489         1.141228        -0.757788
 H         2.210311        -2.336464         0.517599
