19
Iteration:  2059
 C         2.225762         2.371436         0.913571
 C         2.255931         0.864203         1.279499
 C         2.547734         0.416329         2.634077
 C         2.036947        -1.040329         2.349654
 O         0.661230        -0.751481         1.985093
 C         1.156449        -0.104111         0.805915
 C         0.145937         0.226175        -0.266517
 C         2.462921        -1.091964         0.766019
 O         3.385482         0.053264         0.698022
 H         1.278677         2.853468         0.662034
 H         2.668311         3.083891         1.724470
 H         2.834180         2.518884        -0.000758
 H         3.647207         0.655759         2.971376
 H         1.923239         0.647564         3.431993
 H         1.971039        -1.853548         3.047692
 H         0.776659         0.080089        -1.145609
 H        -0.714052        -0.422376        -0.120156
 H        -0.133631         1.332243        -0.153703
 H         2.595609        -1.992642         0.207746
