19
Iteration:  2297
 C         2.259722         2.531271         1.118485
 C         2.266095         0.907938         1.359590
 C         2.314814         0.383935         2.797805
 C         2.018131        -1.082218         2.349205
 O         0.602018        -0.912597         1.830662
 C         1.253170        -0.207593         0.787219
 C         0.295709         0.021662        -0.462251
 C         2.557957        -0.987328         0.839062
 O         3.340601         0.301331         0.611028
 H         1.810014         2.799070         0.163978
 H         1.700415         3.059677         1.916409
 H         3.288922         2.912716         0.981525
 H         3.350202         0.534319         3.239873
 H         1.575930         0.823453         3.390677
 H         2.154149        -1.980525         2.995738
 H         0.692322        -0.320879        -1.401921
 H        -0.546327        -0.643133        -0.244995
 H        -0.075619         1.051113        -0.496926
 H         2.953781        -1.829980         0.255913
