19
Iteration:  3018
 C         1.505950         2.490621         1.336258
 C         2.010575         0.953037         1.491880
 C         1.928684         0.164391         2.879178
 C         2.049557        -1.244110         2.213878
 O         0.801006        -1.188750         1.427474
 C         1.475137        -0.213836         0.615390
 C         0.827322         0.065535        -0.781488
 C         2.898918        -0.733539         0.980014
 O         3.386580         0.661758         1.087344
 H         2.385598         3.136760         1.615928
 H         1.357081         2.780057         0.272219
 H         0.492496         2.707080         1.791460
 H         2.969888         0.531220         3.286362
 H         1.250572         0.259280         3.696492
 H         2.250364        -2.180022         2.735118
 H         0.915942        -0.868594        -1.418219
 H        -0.239512         0.269428        -0.815451
 H         1.347649         0.895863        -1.319267
 H         3.496074        -1.443366         0.438406
