19
Iteration:  1025
 C         2.537117         2.290664         0.715084
 C         2.440265         0.905997         1.173815
 C         2.790032         0.374641         2.620234
 C         1.950085        -0.969675         2.449953
 O         0.571655        -0.615141         2.158220
 C         1.091285         0.001700         0.886863
 C         0.048200         0.223948        -0.171782
 C         2.189673        -1.055532         0.839767
 O         3.236929        -0.134936         0.507313
 H         2.372018         2.890016         1.655898
 H         3.640668         2.455858         0.495607
 H         1.672770         2.685526         0.125634
 H         3.904169         0.281533         2.599924
 H         2.506465         0.925157         3.475296
 H         2.079513        -1.963203         3.009063
 H        -0.799388        -0.314617         0.175324
 H        -0.029530         1.324419        -0.208238
 H         0.540832        -0.130342        -1.143384
 H         2.177942        -1.976947         0.341115
