19
Iteration:  2347charge 0 multiplicity 1
 C         2.081521         2.516283         1.095707
 C         2.212042         0.920436         1.311256
 C         2.392105         0.330710         2.716415
 C         2.031909        -1.072408         2.324536
 O         0.638147        -0.942780         1.820015
 C         1.235603        -0.164586         0.774282
 C         0.409710         0.080678        -0.450757
 C         2.531129        -0.934867         0.880906
 O         3.368638         0.247216         0.738965
 H         1.067870         2.911722         1.260901
 H         2.743115         3.036676         1.758850
 H         2.288109         2.763117         0.035085
 H         3.386488         0.417840         3.139176
 H         1.594930         0.540743         3.489576
 H         2.217601        -1.887413         3.009786
 H         0.068022        -0.874961        -0.936807
 H        -0.485739         0.764870        -0.356529
 H         1.116453         0.590984        -1.095769
 H         2.741340        -1.813541         0.263981
