19
Iteration:  3262charge 0 multiplicity 1
 C         1.443846         2.429405         1.574624
 C         1.884622         0.964475         1.527914
 C         1.620090         0.104686         2.833167
 C         2.096662        -1.145451         2.225964
 O         0.989779        -1.280868         1.232230
 C         1.602813        -0.151449         0.404154
 C         0.901926        -0.103448        -0.912136
 C         3.010281        -0.519324         0.965502
 O         3.384861         0.733695         1.303937
 H         1.842213         3.023143         2.421642
 H         1.819348         3.007266         0.724226
 H         0.386306         2.348107         1.548834
 H         2.206239         0.389456         3.654953
 H         0.492442         0.100372         3.143001
 H         2.368557        -1.974658         2.928228
 H         1.026517        -1.073058        -1.366496
 H        -0.201681        -0.038714        -0.659338
 H         1.257594         0.742322        -1.527517
 H         3.678887        -1.269588         0.457952
