19
Iteration:  3347charge 0 multiplicity 1
 C         1.224675         2.313586         1.432188
 C         1.881257         0.938079         1.547454
 C         1.719098         0.106164         2.863030
 C         2.046896        -1.226432         2.130900
 O         0.962636        -1.295006         1.291944
 C         1.550503        -0.208820         0.548905
 C         1.171972         0.134611        -0.860974
 C         2.914830        -0.602624         0.960002
 O         3.437489         0.815704         1.287872
 H         1.630438         2.898919         0.579416
 H         0.134764         2.080940         1.343037
 H         1.376338         2.986610         2.293077
 H         2.390857         0.439679         3.685009
 H         0.602079         0.063701         3.146901
 H         2.165982        -2.071967         2.797485
 H         0.360676        -0.522291        -1.286355
 H         0.818579         1.204126        -0.957951
 H         2.077419         0.002203        -1.496133
 H         3.522604        -1.423094         0.500520
