19
Iteration:  4842
 C         1.250827         2.329879         1.737861
 C         1.831494         0.934085         1.566224
 C         1.777802         0.080353         2.933303
 C         2.222321        -1.169468         2.090457
 O         1.034366        -1.328298         1.157762
 C         1.573652        -0.160577         0.397205
 C         0.943559        -0.152538        -0.957344
 C         2.951694        -0.403771         0.886332
 O         3.310092         0.930498         1.328942
 H         0.210823         2.073659         2.078525
 H         1.854546         2.759002         2.537724
 H         1.169885         2.769792         0.783178
 H         2.601333         0.445168         3.494313
 H         0.820803        -0.075441         3.490809
 H         2.713774        -2.023053         2.560526
 H        -0.089577         0.055025        -0.698932
 H         1.357353         0.416738        -1.772997
 H         0.973211        -1.169416        -1.256849
 H         3.849313        -0.926871         0.479071
