19
Iteration:   370
 C         2.510534         2.263822         0.796826
 C         2.404753         0.782188         1.065970
 C         2.690143         0.405790         2.536987
 C         1.993576        -0.926319         2.478479
 O         0.577946        -0.548871         2.150135
 C         1.113704        -0.118000         0.853053
 C         0.039705         0.377971        -0.116209
 C         2.287811        -1.164810         0.877108
 O         3.298268        -0.170819         0.492086
 H         1.826507         2.916668         1.565370
 H         3.543601         2.676959         1.013526
 H         2.316337         2.675088        -0.264704
 H         3.768011         0.302619         2.794697
 H         2.241129         1.198299         3.285262
 H         2.104717        -1.712656         3.261235
 H        -0.868293        -0.272562         0.053863
 H        -0.368579         1.472106         0.131996
 H         0.150071         0.392663        -1.165291
 H         2.355060        -2.153588         0.479124
