19
Iteration:  2932charge 0 multiplicity 1
 C         1.772611         2.407554         1.376325
 C         1.959884         1.007615         1.549250
 C         1.965824         0.205086         2.842538
 C         1.995137        -1.109430         2.257083
 O         0.844792        -1.186687         1.363215
 C         1.448509        -0.192509         0.581230
 C         0.622180        -0.084840        -0.724773
 C         2.840510        -0.633141         0.844405
 O         3.413568         0.604650         1.145290
 H         0.963371         2.780857         2.077745
 H         2.775246         2.867982         1.443802
 H         1.475915         2.534063         0.251270
 H         2.953086         0.554753         3.359199
 H         1.095269         0.402297         3.429462
 H         2.172952        -1.937008         2.941429
 H         0.794660         0.834326        -1.372142
 H         1.045519        -0.947959        -1.265891
 H        -0.430563        -0.162373        -0.598304
 H         3.347461        -1.374396         0.224535
