19
Iteration:   409charge 0 multiplicity 1
 C         2.512305         2.337694         0.699113
 C         2.419492         0.880048         1.190739
 C         2.714839         0.346039         2.640815
 C         2.029969        -1.029162         2.427521
 O         0.581452        -0.558051         2.251803
 C         1.131552        -0.024000         0.970700
 C         0.237297         0.276907        -0.202832
 C         2.133017        -1.094751         0.878071
 O         3.117686        -0.133474         0.359359
 H         1.735776         2.899736         1.007934
 H         3.315224         2.731610         1.315520
 H         2.706240         2.327055        -0.342549
 H         3.787240         0.387479         2.870530
 H         2.110095         0.815978         3.367442
 H         2.240466        -1.838284         3.186518
 H        -0.593337        -0.419216        -0.022510
 H        -0.008530         1.277891        -0.216848
 H         0.892827         0.001069        -1.090003
 H         2.046031        -1.994361         0.238489
