19
Iteration:  3695charge 0 multiplicity 1
 C         1.461483         2.393198         1.488762
 C         1.852744         0.959775         1.528230
 C         1.688291         0.093412         2.852162
 C         1.997270        -1.160756         2.140634
 O         0.962817        -1.277507         1.195810
 C         1.595738        -0.213317         0.479334
 C         0.994798         0.046310        -0.857906
 C         3.033710        -0.564917         1.017775
 O         3.335863         0.731225         1.361457
 H         0.375119         2.441066         1.694913
 H         1.857407         2.979880         2.343811
 H         1.623823         2.828955         0.536554
 H         2.353314         0.446603         3.591465
 H         0.560289         0.062934         3.117668
 H         2.113227        -2.139602         2.497513
 H         1.360354        -0.842670        -1.317066
 H        -0.134166         0.088713        -0.837083
 H         1.472563         0.853423        -1.478208
 H         3.740068        -1.178647         0.485868
