19
Iteration:   944charge 0 multiplicity 1
 C         2.600846         2.282698         0.635063
 C         2.487174         0.848829         1.186393
 C         2.777870         0.339684         2.703632
 C         1.958511        -0.998515         2.406886
 O         0.588125        -0.497125         2.123034
 C         1.097609         0.007835         0.876492
 C        -0.103973         0.242314        -0.068727
 C         2.262311        -1.091778         0.875681
 O         3.262090        -0.119471         0.497911
 H         1.859552         2.792102         1.189192
 H         3.553940         2.713918         0.787064
 H         2.503935         2.171330        -0.415197
 H         3.843729         0.268834         2.780273
 H         2.303141         0.894431         3.619144
 H         1.930770        -1.889327         2.942365
 H        -0.284335        -0.664980        -0.731871
 H        -1.041865         0.490082         0.441715
 H         0.058518         1.006834        -0.775343
 H         2.275758        -2.048307         0.187330
