19
Iteration:  3926
 C         1.470487         2.495478         1.680911
 C         1.921794         0.972981         1.560724
 C         1.697329         0.131239         2.867299
 C         1.977741        -1.185616         2.062366
 O         0.855441        -1.264912         1.250241
 C         1.504842        -0.164916         0.519898
 C         1.156302        -0.178107        -0.972844
 C         2.893363        -0.528963         0.915442
 O         3.377236         0.734573         1.290146
 H         0.640856         2.638658         2.343710
 H         2.248815         3.108639         2.099863
 H         1.247565         2.910011         0.643812
 H         2.489540         0.572104         3.530204
 H         0.797008        -0.023651         3.413979
 H         2.351375        -2.109805         2.611064
 H         1.507601        -1.165153        -1.442325
 H         0.012792        -0.031360        -1.044064
 H         1.460864         0.671229        -1.565125
 H         3.639191        -1.144756         0.493337
