19
Iteration:  2280
 C         2.232374         2.433660         1.125235
 C         2.207019         1.042759         1.303445
 C         2.356211         0.413967         2.697267
 C         1.987139        -1.008669         2.276406
 O         0.646694        -0.926992         1.856216
 C         1.248484        -0.194668         0.712834
 C         0.236493         0.007964        -0.362379
 C         2.535621        -0.908896         0.783157
 O         3.424665         0.149898         0.745276
 H         2.217373         2.820666         0.050171
 H         1.346513         2.822187         1.660444
 H         3.131364         2.826384         1.590589
 H         3.347758         0.547831         3.046509
 H         1.534060         0.768823         3.481977
 H         2.143573        -1.766314         3.030112
 H         0.903066         0.154970        -1.284424
 H        -0.382960        -0.904113        -0.480853
 H        -0.315011         0.947824        -0.027357
 H         2.867955        -1.783279         0.213085
