19
Iteration:  1825
 C         2.464578         2.468267         0.908607
 C         2.425559         0.886334         1.262781
 C         2.594804         0.397004         2.601594
 C         1.961876        -0.966351         2.373653
 O         0.566730        -0.612724         2.056750
 C         1.113068        -0.099525         0.842618
 C         0.169425         0.061764        -0.157959
 C         2.307308        -1.060079         0.832953
 O         3.333253        -0.087657         0.472545
 H         3.440802         2.726448         0.418809
 H         1.666625         2.558199         0.184478
 H         2.463777         3.168043         1.711711
 H         3.625754         0.330703         2.870377
 H         1.924190         0.947297         3.393475
 H         2.018671        -1.741283         3.113178
 H         0.294846        -0.437364        -1.121592
 H        -0.862588        -0.267624         0.171720
 H        -0.039082         1.119961        -0.105227
 H         2.201285        -2.010951         0.260720
