19
Iteration:  3866charge 0 multiplicity 1
 C         1.482922         2.466987         1.522153
 C         1.981069         1.002139         1.579080
 C         1.667120         0.139747         2.791078
 C         2.095730        -1.179267         2.186728
 O         0.965478        -1.436936         1.179351
 C         1.500412        -0.247736         0.545356
 C         0.965564         0.070563        -0.863693
 C         2.930055        -0.566289         0.958556
 O         3.328767         0.727415         1.327369
 H         0.396550         2.715130         1.344675
 H         1.844720         2.972423         2.476669
 H         2.047700         2.945353         0.725749
 H         2.148607         0.657372         3.618331
 H         0.559426         0.133642         2.883700
 H         2.240499        -2.065276         2.751375
 H         0.902407        -0.735405        -1.548725
 H        -0.013155         0.442561        -0.838354
 H         1.638077         0.805194        -1.342467
 H         3.641404        -1.317341         0.529507
