19
Iteration:  4077charge 0 multiplicity 1
 C         1.460851         2.469992         1.715497
 C         1.933535         1.060344         1.574515
 C         1.773207         0.220154         2.792431
 C         1.969581        -1.149912         2.147491
 O         0.848488        -1.264444         1.255993
 C         1.501302        -0.158464         0.496967
 C         1.080000        -0.175040        -0.946208
 C         2.859074        -0.660914         0.928533
 O         3.434094         0.690766         1.226730
 H         0.502600         2.484545         1.201853
 H         1.319271         2.659721         2.783007
 H         2.258613         3.092438         1.167671
 H         2.566337         0.502042         3.501442
 H         0.734175         0.180495         3.169293
 H         2.188582        -2.116450         2.735309
 H         1.414955        -0.947932        -1.593882
 H        -0.013761        -0.137558        -0.994211
 H         1.433745         0.690378        -1.380716
 H         3.726937        -1.057227         0.511153
