19
Iteration:  2225
 C         2.187501         2.411339         0.949872
 C         2.224954         0.936463         1.251986
 C         2.439824         0.384698         2.791356
 C         2.023781        -1.087770         2.394466
 O         0.579099        -0.942719         1.882172
 C         1.280802        -0.165205         0.849588
 C         0.338667         0.169049        -0.331923
 C         2.478956        -0.983299         0.809601
 O         3.337301         0.230196         0.647877
 H         3.202905         2.673594         0.501575
 H         1.410440         2.497662         0.150812
 H         2.054021         3.109194         1.764165
 H         3.460146         0.642168         3.043351
 H         1.756299         0.811893         3.668540
 H         2.082334        -1.977441         3.040678
 H         0.183365         1.296400        -0.429780
 H         0.979670        -0.050613        -1.196673
 H        -0.677746        -0.384932        -0.340077
 H         2.762641        -1.767939         0.078953
