19
Iteration:   905charge 0 multiplicity 1
 C         2.610900         2.269846         0.827738
 C         2.434136         0.845834         1.120883
 C         2.765104         0.427602         2.592926
 C         2.030662        -0.951183         2.438745
 O         0.610165        -0.502971         2.219383
 C         1.064212        -0.026468         0.916326
 C         0.031597         0.226558        -0.182664
 C         2.165344        -1.140677         0.886811
 O         3.166088        -0.193454         0.345767
 H         1.540662         2.763247         0.840107
 H         3.228503         2.865119         1.586181
 H         3.185308         2.620971        -0.102822
 H         3.904236         0.496140         2.770067
 H         2.258990         1.023269         3.325669
 H         2.124867        -1.774454         3.278987
 H        -0.135906        -0.765773        -0.538434
 H        -0.938126         0.615290         0.246416
 H         0.588391         1.012660        -0.765502
 H         2.162800        -2.098019         0.444286
