19
Iteration:  2236
 C         2.169600         2.398317         0.955137
 C         2.265979         0.947649         1.337076
 C         2.354424         0.331407         2.803303
 C         1.982796        -1.033161         2.391619
 O         0.645801        -0.857801         1.878719
 C         1.191238        -0.227972         0.761013
 C         0.370919         0.132049        -0.299446
 C         2.568985        -0.971061         0.772661
 O         3.354926         0.242076         0.613191
 H         3.074914         2.599304         0.289503
 H         1.298973         2.775918         0.353199
 H         2.211769         3.027947         1.835340
 H         3.387112         0.281972         3.119373
 H         1.630445         0.878253         3.568042
 H         2.170771        -1.919817         3.007018
 H         0.372489         1.267508        -0.411596
 H         0.570891        -0.409047        -1.247352
 H        -0.684908        -0.185260         0.029596
 H         2.683666        -1.954134         0.267338
