19
Iteration:  3295charge 0 multiplicity 1
 C         1.356254         2.436774         1.524353
 C         1.869568         0.963530         1.538016
 C         1.765090         0.110109         2.841786
 C         2.048840        -1.223359         2.175578
 O         0.909929        -1.396191         1.234826
 C         1.536116        -0.244693         0.546369
 C         1.105569         0.031022        -0.885165
 C         2.961138        -0.520393         0.977537
 O         3.317817         0.797042         1.263562
 H         2.195430         3.121071         1.700295
 H         0.907621         2.637578         0.552706
 H         0.564595         2.639837         2.222152
 H         2.582043         0.427833         3.411636
 H         0.715289         0.231213         3.324240
 H         2.414589        -1.892354         2.956064
 H         0.690184        -0.866663        -1.298098
 H         0.437056         0.932550        -0.985720
 H         1.996087         0.246202        -1.525926
 H         3.724136        -1.088929         0.384712
