19
Iteration:  4417charge 0 multiplicity 1
 C         1.326216         2.388944         1.553417
 C         1.821467         1.046689         1.554286
 C         1.823495         0.156568         2.889801
 C         2.116789        -1.259050         2.099768
 O         0.893171        -1.325736         1.220904
 C         1.521203        -0.197840         0.607731
 C         1.121565        -0.015669        -0.898890
 C         2.969408        -0.568528         0.926848
 O         3.290614         0.793421         1.247148
 H         0.256332         2.263864         1.926659
 H         1.836345         2.883104         2.351460
 H         1.328268         2.833538         0.584720
 H         2.730970         0.347854         3.489463
 H         0.915982        -0.009671         3.409444
 H         2.338460        -2.092854         2.760037
 H         1.757359        -0.544786        -1.599668
 H         0.072606        -0.286974        -1.090232
 H         1.196939         1.116616        -1.181717
 H         3.805605        -1.160866         0.400812
