19
Iteration:   101charge 0 multiplicity 1
 C         2.637515         2.191283         0.768448
 C         2.412619         0.825473         1.171047
 C         2.731518         0.444949         2.699147
 C         2.109827        -0.927495         2.446423
 O         0.606815        -0.527520         2.224826
 C         1.045724        -0.001861         0.964834
 C         0.080755         0.252225        -0.176419
 C         2.140320        -1.010495         0.822813
 O         3.143831        -0.215204         0.330192
 H         1.945917         2.733168         1.375921
 H         3.710160         2.446889         0.905262
 H         2.333158         2.445284        -0.203328
 H         3.715461         0.445065         2.899687
 H         2.093009         1.125374         3.290218
 H         2.317476        -1.891428         3.068351
 H         0.051543        -0.615683        -0.858019
 H        -0.846019         0.403089         0.132377
 H         0.291625         1.051018        -0.891979
 H         2.042709        -2.109928         0.388975
