19
Iteration:  2761
 C         1.936655         2.447313         1.312396
 C         2.066584         0.923048         1.512443
 C         1.939518         0.340577         2.838090
 C         2.078368        -1.123800         2.300320
 O         0.810439        -1.187785         1.531251
 C         1.350405        -0.220905         0.638066
 C         0.538652         0.020457        -0.633795
 C         2.756187        -0.751448         0.827718
 O         3.388665         0.544162         0.918067
 H         2.895758         2.884066         1.336034
 H         1.584413         2.690062         0.284514
 H         1.344271         2.886850         2.155762
 H         2.918021         0.551148         3.325957
 H         1.115296         0.681967         3.349710
 H         2.078180        -2.075007         2.893337
 H         1.184524        -0.460648        -1.422311
 H        -0.386768        -0.546484        -0.575660
 H         0.348202         0.986322        -0.913558
 H         3.316229        -1.484100         0.172474
