19
Iteration:  3190
 C         1.426328         2.360709         1.418445
 C         1.947509         0.955354         1.534298
 C         1.800698         0.148633         2.799312
 C         2.140890        -1.137071         2.200781
 O         0.892009        -1.322535         1.341018
 C         1.486956        -0.283905         0.562712
 C         1.062302         0.140978        -0.751048
 C         2.878713        -0.630313         0.904187
 O         3.274444         0.737442         1.204534
 H         0.305326         2.383802         1.605275
 H         1.864729         3.030885         2.149307
 H         1.535178         2.630254         0.345860
 H         2.463411         0.720171         3.482772
 H         0.818400         0.020775         3.223795
 H         2.577046        -2.013616         2.715079
 H         1.876967         0.279080        -1.444395
 H         0.551963        -0.736533        -1.154753
 H         0.376798         1.023547        -0.709219
 H         3.628745        -1.189775         0.372971
