19
Iteration:  1919
 C         2.390518         2.298895         0.858066
 C         2.380764         0.918589         1.250118
 C         2.556676         0.434579         2.757116
 C         2.003328        -0.920971         2.377764
 O         0.585585        -0.691190         2.029424
 C         1.104549        -0.204887         0.823538
 C         0.084680         0.213694        -0.267789
 C         2.454813        -1.140574         0.770097
 O         3.343742         0.026846         0.588828
 H         1.979950         2.568048        -0.129634
 H         1.747466         2.812310         1.610291
 H         3.450599         2.554177         0.817559
 H         3.623042         0.520335         3.041532
 H         1.974696         0.929363         3.471725
 H         2.096446        -1.703578         3.104498
 H        -0.888125         0.117541         0.164487
 H         0.152257         1.242967        -0.451532
 H         0.081761        -0.140631        -1.310283
 H         2.780730        -2.029447         0.303009
