19
Iteration:  1455charge 0 multiplicity 1
 C         2.549979         2.170639         0.642186
 C         2.379660         0.835518         1.206731
 C         2.628117         0.362407         2.690896
 C         2.009684        -0.974728         2.441079
 O         0.625640        -0.617439         2.171214
 C         1.092005        -0.044089         0.925169
 C         0.139399         0.349909        -0.101342
 C         2.259947        -1.062819         0.828006
 O         3.210360        -0.056036         0.439606
 H         2.591754         2.935795         1.436948
 H         3.546115         2.160240         0.196062
 H         1.847184         2.447057        -0.121729
 H         3.692865         0.573837         2.727301
 H         1.985324         0.931797         3.527104
 H         1.980750        -1.587950         3.339739
 H        -0.168929        -0.620085        -0.646258
 H        -0.880539         0.802269         0.220363
 H         0.590232         0.904381        -0.932772
 H         2.300919        -1.978330         0.232431
