19
Iteration:  4494
 C         1.368533         2.334005         1.497001
 C         1.915703         0.996551         1.562803
 C         1.643166         0.078525         2.893986
 C         2.098171        -1.162208         2.177029
 O         1.041379        -1.329904         1.119094
 C         1.655774        -0.248496         0.483912
 C         0.808584         0.086303        -0.843053
 C         3.089788        -0.544009         0.999366
 O         3.352455         0.805681         1.318555
 H         0.240661         2.206259         1.510857
 H         1.577798         3.003457         2.337757
 H         1.706858         2.741791         0.572443
 H         2.197266         0.493042         3.770724
 H         0.557673         0.067767         3.237206
 H         2.280934        -2.172727         2.468345
 H        -0.027024        -0.580947        -0.605730
 H         0.375596         1.106807        -1.060098
 H         1.357250        -0.463137        -1.739716
 H         4.072628        -1.056493         0.587974
