19
Iteration:  2678charge 0 multiplicity 1
 C         1.773873         2.509109         1.304580
 C         2.121811         0.994058         1.379184
 C         2.185785         0.271350         2.775198
 C         2.037976        -1.099887         2.317372
 O         0.712713        -1.130844         1.705744
 C         1.321946        -0.219995         0.688959
 C         0.610478         0.092858        -0.667001
 C         2.711815        -0.868858         0.877700
 O         3.443377         0.390822         0.820706
 H         1.149046         2.688358         2.219121
 H         2.579335         3.265056         1.179449
 H         1.229475         2.801543         0.431250
 H         3.013842         0.565855         3.421454
 H         1.183237         0.562839         3.325369
 H         2.145249        -1.951456         2.961169
 H         0.446075         1.179454        -0.728994
 H         1.360442        -0.038453        -1.480496
 H        -0.487378        -0.303788        -0.878567
 H         3.301979        -1.642136         0.353105
