19
Iteration:  3845
 C         1.387063         2.313867         1.348110
 C         1.889008         0.900369         1.569001
 C         1.680508         0.121541         2.897837
 C         2.040235        -1.207103         2.108464
 O         0.913861        -1.222187         1.223630
 C         1.640080        -0.218937         0.524785
 C         0.961554         0.196910        -0.797916
 C         3.032446        -0.640426         0.997137
 O         3.387980         0.731695         1.344469
 H         0.318217         2.323713         0.989463
 H         1.459981         2.965041         2.262308
 H         1.910238         2.817371         0.550769
 H         2.468711         0.245645         3.594148
 H         0.682186        -0.050220         3.379539
 H         2.288307        -2.047536         2.702063
 H         0.753411        -0.676929        -1.352008
 H        -0.038916         0.491293        -0.620968
 H         1.514363         0.864705        -1.489920
 H         3.833592        -1.235555         0.466864
