19
Iteration:  4795
 C         1.331838         2.335410         1.503622
 C         1.791878         0.928101         1.602333
 C         1.643744         0.022951         2.916482
 C         2.234724        -1.083428         2.083340
 O         1.227854        -1.521612         1.185437
 C         1.537768        -0.216676         0.511062
 C         0.883694         0.100302        -0.815981
 C         2.961876        -0.454395         0.939762
 O         3.254186         0.892924         1.294988
 H         0.548599         2.432142         2.245892
 H         2.191711         2.887071         1.782578
 H         0.895929         2.555463         0.506858
 H         2.466575         0.205777         3.652634
 H         0.621555        -0.132150         3.258891
 H         2.547385        -1.975041         2.625137
 H        -0.087718        -0.337147        -0.935073
 H         0.858252         1.235187        -0.819158
 H         1.506207        -0.018622        -1.767391
 H         3.705085        -0.940111         0.212941
