19
Iteration:  2339
 C         2.095911         2.511620         1.115700
 C         2.213553         0.991468         1.358252
 C         2.363094         0.386313         2.679206
 C         2.078311        -1.127438         2.294415
 O         0.604650        -0.935252         1.868711
 C         1.181347        -0.200142         0.751965
 C         0.462823         0.066832        -0.423503
 C         2.487314        -0.960167         0.795649
 O         3.364048         0.263546         0.769895
 H         1.105510         2.904006         0.977325
 H         2.750572         2.996133         1.880364
 H         2.634409         2.528632         0.065281
 H         3.437881         0.461941         3.124455
 H         1.756405         0.722980         3.458249
 H         2.268010        -1.948824         3.028373
 H         0.390481        -0.821418        -1.018683
 H        -0.574386         0.426695        -0.368575
 H         0.998985         0.728306        -1.032153
 H         2.713903        -1.834631         0.150857
