19
Iteration:   721charge 0 multiplicity 1
 C         2.508929         2.298042         0.780256
 C         2.472050         0.817092         1.190333
 C         2.771588         0.331060         2.618560
 C         1.914700        -0.913893         2.489086
 O         0.618576        -0.429599         2.165208
 C         1.134585        -0.044275         0.844642
 C         0.070145         0.152545        -0.181632
 C         2.228513        -1.156562         0.861718
 O         3.203270        -0.098786         0.441337
 H         2.539142         2.778953         1.758081
 H         3.460143         2.437926         0.206207
 H         1.673991         2.650498         0.158842
 H         3.935081         0.234963         2.787845
 H         2.337263         1.040749         3.326122
 H         1.971784        -1.826120         3.065680
 H        -0.282476        -0.671233        -0.792675
 H        -0.932873         0.548805         0.252450
 H         0.320919         1.063386        -0.871944
 H         2.190251        -2.170840         0.511081
