19
Iteration:  1609
 C         2.477167         2.354863         0.758517
 C         2.372443         0.898917         1.133858
 C         2.682327         0.364784         2.607408
 C         2.004260        -0.989658         2.424286
 O         0.593322        -0.566310         2.133794
 C         1.131055        -0.079822         0.888299
 C         0.003640         0.332451        -0.093900
 C         2.270198        -1.085862         0.889232
 O         3.375339        -0.222232         0.446878
 H         1.557075         2.879535         0.531373
 H         2.957642         2.857702         1.547475
 H         3.029556         2.302420        -0.158373
 H         3.683249         0.353956         2.791758
 H         2.190738         0.918602         3.472910
 H         2.139964        -1.818735         3.054068
 H        -0.896893         0.179027         0.452139
 H         0.044257         1.339067        -0.578847
 H        -0.255955        -0.398135        -0.815365
 H         2.332816        -2.110604         0.458812
