19
Iteration:  1962
 C         2.504469         2.396437         0.898095
 C         2.413798         0.881819         1.309830
 C         2.503289         0.411041         2.772245
 C         1.969090        -0.938116         2.368860
 O         0.571614        -0.759942         2.012226
 C         1.153718        -0.172271         0.825825
 C         0.156564         0.115309        -0.225821
 C         2.369699        -0.970429         0.748680
 O         3.277905         0.032722         0.506952
 H         1.589374         2.756859         0.369315
 H         2.230697         3.107927         1.720219
 H         3.269587         2.694768         0.152146
 H         3.518476         0.306405         3.271266
 H         1.861366         0.921807         3.420786
 H         2.124740        -1.716394         3.083689
 H        -0.629584         0.805534        -0.061500
 H         0.666451         0.299497        -1.133333
 H        -0.161133        -0.928980        -0.430620
 H         2.660084        -1.861430         0.267489
