19
Iteration:  3086charge 0 multiplicity 1
 C         1.706420         2.523024         1.466008
 C         1.881918         1.040433         1.547761
 C         1.784326         0.247237         2.841976
 C         2.119962        -1.139090         2.229116
 O         0.894847        -1.358597         1.294962
 C         1.462493        -0.398484         0.522141
 C         0.856695        -0.001757        -0.730773
 C         2.897678        -0.698368         0.884098
 O         3.279055         0.717581         1.139587
 H         2.229964         2.915653         0.628380
 H         0.576594         2.687739         1.273649
 H         1.794205         3.063293         2.456861
 H         2.669397         0.569321         3.469924
 H         0.905618         0.508144         3.394739
 H         2.340750        -2.071556         2.759109
 H        -0.261326        -0.065369        -0.571909
 H         1.118178         1.013232        -1.001856
 H         1.139776        -0.600316        -1.539014
 H         3.771148        -1.205614         0.386814
