19
Iteration:  4735
 C         1.164090         2.231416         1.641233
 C         1.894846         0.927443         1.657350
 C         1.853909         0.151141         2.949049
 C         2.222435        -1.205925         2.098019
 O         0.970843        -1.318688         1.198341
 C         1.487057        -0.135852         0.471466
 C         1.013661        -0.015023        -0.927467
 C         3.022939        -0.467204         0.872952
 O         3.321729         0.855118         1.259899
 H         0.065749         1.897501         1.701188
 H         1.370921         3.027918         2.464954
 H         1.365675         2.742561         0.710849
 H         2.645121         0.408001         3.626847
 H         0.909145         0.238366         3.541324
 H         2.377692        -2.190522         2.576262
 H         0.903174        -1.107911        -1.258810
 H         0.005095         0.411716        -1.034543
 H         1.748537         0.455931        -1.556518
 H         3.611929        -0.849014         0.081961
