19
Iteration:  4329charge 0 multiplicity 1
 C         1.512838         2.407273         1.412345
 C         1.861367         0.975218         1.626249
 C         1.702692         0.109391         2.918653
 C         2.126076        -1.163752         2.198482
 O         0.972545        -1.431460         1.204278
 C         1.501271        -0.236649         0.481804
 C         0.998541         0.081772        -0.907037
 C         2.948125        -0.558590         0.939469
 O         3.254473         0.805691         1.352661
 H         0.442140         2.642642         1.451780
 H         1.976828         3.013854         2.139882
 H         1.812851         2.637074         0.386596
 H         2.393543         0.195450         3.798596
 H         0.756482         0.070401         3.353001
 H         2.513626        -2.159752         2.425304
 H         1.244183         1.146184        -1.120758
 H         1.294564        -0.526544        -1.740365
 H        -0.087625         0.186153        -0.739204
 H         3.792662        -1.129464         0.435892
