19
Iteration:  3820charge 0 multiplicity 1
 C         1.307798         2.229576         1.286737
 C         1.931628         0.918374         1.601612
 C         1.871086         0.150489         2.945016
 C         1.980449        -1.272461         2.180712
 O         0.864183        -1.213103         1.160373
 C         1.566757        -0.189362         0.542937
 C         1.023771         0.260407        -0.835551
 C         2.967212        -0.610557         1.011173
 O         3.409460         0.714669         1.378510
 H         0.263147         1.860098         1.103140
 H         1.201143         3.067014         1.974356
 H         1.565612         2.578231         0.222949
 H         2.825466         0.282522         3.619417
 H         0.963981         0.136697         3.477696
 H         2.151090        -2.193803         2.775781
 H         0.857186        -0.574003        -1.587848
 H         0.040251         0.674301        -0.854905
 H         1.791446         0.858587        -1.259419
 H         3.766186        -1.107277         0.459358
