19
Iteration:  3784
 C         1.391794         2.384059         1.558241
 C         1.882183         0.955129         1.549839
 C         1.693899         0.162787         2.842027
 C         2.067880        -1.252196         2.214135
 O         0.907015        -1.289557         1.284026
 C         1.500956        -0.298058         0.546685
 C         1.187948         0.145655        -0.958040
 C         2.984710        -0.619945         0.990914
 O         3.303698         0.745205         1.198935
 H         0.371605         2.376981         1.955230
 H         2.039603         2.969421         2.249855
 H         1.409257         2.890107         0.560122
 H         2.293571         0.613980         3.665576
 H         0.629799         0.079328         3.238611
 H         2.124113        -2.162656         2.872479
 H         1.319768        -0.765124        -1.558460
 H         0.183840         0.691655        -1.129915
 H         1.893863         0.914886        -1.367317
 H         3.436016        -1.189665         0.198969
