19
Iteration:  2275charge 0 multiplicity 1
 C         2.207759         2.446497         1.106164
 C         2.219292         0.955768         1.302788
 C         2.329613         0.422802         2.699440
 C         2.035421        -0.997432         2.284574
 O         0.670408        -0.906693         1.835272
 C         1.236064        -0.184122         0.744055
 C         0.201381         0.036721        -0.388618
 C         2.489524        -0.937446         0.794388
 O         3.457096         0.164057         0.766012
 H         2.400398         2.861505         0.139009
 H         1.256695         2.808458         1.536971
 H         3.086315         2.806022         1.693524
 H         3.416330         0.493471         3.047468
 H         1.664356         0.815957         3.387473
 H         2.222053        -1.776209         3.055440
 H         0.773960         0.279807        -1.258017
 H        -0.294309        -0.917918        -0.604265
 H        -0.471600         0.840919        -0.042872
 H         2.852656        -1.807685         0.247489
