19
Iteration:   806
 C         2.600712         2.226346         0.716901
 C         2.373661         0.849608         1.167564
 C         2.620961         0.426912         2.578634
 C         1.979505        -0.912014         2.423622
 O         0.648867        -0.570238         2.084645
 C         1.139017        -0.146252         0.846327
 C        -0.015193         0.337039        -0.022166
 C         2.304918        -1.147900         0.859025
 O         3.216948        -0.133737         0.489108
 H         1.799029         2.833968         1.338437
 H         3.528939         2.747580         1.031188
 H         2.547565         2.433568        -0.370184
 H         3.783750         0.403698         2.584644
 H         2.185166         1.017655         3.462245
 H         2.049386        -1.664038         3.183444
 H        -0.864918        -0.121868         0.396308
 H        -0.017348         1.486296         0.153866
 H         0.141185         0.077890        -1.074162
 H         2.517548        -2.124673         0.610320
