19
Iteration:  1196charge 0 multiplicity 1
 C         2.680932         2.269515         0.835179
 C         2.338632         0.875705         1.152551
 C         2.653291         0.442623         2.574034
 C         2.011808        -0.900659         2.481851
 O         0.625100        -0.571638         2.196632
 C         1.091419        -0.172671         0.924466
 C         0.111439         0.246147        -0.162857
 C         2.269722        -1.099382         0.811821
 O         3.130314        -0.116120         0.363168
 H         2.313558         2.886389         1.671604
 H         3.734346         2.404465         0.826580
 H         2.182788         2.539572        -0.110303
 H         3.632339         0.451075         2.861782
 H         2.005721         1.117471         3.228805
 H         2.068206        -1.736159         3.266711
 H        -0.505735        -0.540155        -0.546891
 H        -0.537175         0.836648         0.489241
 H         0.579686         0.714551        -0.997620
 H         2.117975        -2.169360         0.285975
