19
Iteration:  3978
 C         1.353749         2.293426         1.314419
 C         1.868710         0.857138         1.514891
 C         1.790236         0.124787         2.848700
 C         2.021030        -1.198410         2.211045
 O         0.848126        -1.267368         1.235963
 C         1.600007        -0.275103         0.548929
 C         1.049056         0.262602        -0.796412
 C         2.995603        -0.626770         1.045173
 O         3.368229         0.739046         1.259127
 H         0.403895         2.429621         1.839812
 H         1.996296         2.842206         2.046272
 H         1.331094         2.641971         0.261628
 H         2.545390         0.493244         3.492259
 H         0.771262         0.167553         3.394574
 H         2.246148        -2.072675         2.917477
 H         1.088714        -0.358195        -1.631932
 H         0.141015         0.892808        -0.772901
 H         1.816974         0.979338        -0.987598
 H         3.640265        -1.377608         0.612918
