19
Iteration:  4825charge 0 multiplicity 1
 C         1.228443         2.422132         1.678829
 C         1.820823         0.996463         1.616849
 C         1.782012         0.011967         2.800820
 C         2.215182        -1.191973         2.011199
 O         1.072997        -1.316539         1.148343
 C         1.606554        -0.214016         0.506092
 C         0.859679        -0.180771        -0.860765
 C         3.115290        -0.468283         0.944583
 O         3.246433         0.918726         1.347302
 H         0.347233         2.599460         2.271181
 H         1.951660         3.140395         2.206597
 H         1.097304         2.803085         0.590494
 H         2.512798         0.242537         3.648625
 H         0.746944        -0.128331         3.112570
 H         2.199620        -2.194155         2.533900
 H        -0.273530        -0.174430        -0.741965
 H         1.145776         0.776810        -1.349977
 H         1.251078        -0.985771        -1.569945
 H         3.966681        -0.772349         0.332766
