19
Iteration:  3366charge 0 multiplicity 1
 C         1.239458         2.328526         1.503957
 C         1.890706         0.981526         1.556931
 C         1.650229         0.197512         2.867567
 C         2.107924        -1.165895         2.202939
 O         0.941118        -1.284428         1.110376
 C         1.667588        -0.195169         0.478405
 C         1.058046         0.081923        -0.889665
 C         3.050024        -0.605212         1.031521
 O         3.332758         0.684972         1.339938
 H         1.347069         2.762807         0.489510
 H         0.247434         2.235673         1.995017
 H         1.830956         3.158409         2.067329
 H         2.485711         0.453617         3.615030
 H         0.646830         0.100387         3.106359
 H         2.196475        -2.116214         2.757249
 H         0.314077        -0.779936        -0.895823
 H         0.605851         1.039898        -0.904813
 H         1.685368        -0.078034        -1.731159
 H         3.880019        -1.220138         0.611081
