19
Iteration:   141charge 0 multiplicity 1
 C         2.583727         2.327505         0.748717
 C         2.396708         0.853675         1.156696
 C         2.787757         0.273253         2.674743
 C         1.975988        -0.937118         2.459271
 O         0.539082        -0.435464         2.095387
 C         1.144199        -0.042305         0.868465
 C        -0.010582         0.198402        -0.096487
 C         2.267962        -1.063328         0.847105
 O         3.229412        -0.193715         0.419219
 H         2.025343         2.956835         1.535143
 H         3.697674         2.603751         0.623833
 H         2.029870         2.616134        -0.226200
 H         3.960459         0.171966         2.570036
 H         2.525211         0.876357         3.637231
 H         1.879968        -1.790084         3.147458
 H        -0.527151        -0.779393        -0.213891
 H        -0.749574         0.866858         0.663045
 H         0.343645         0.694104        -0.986153
 H         2.335471        -2.031836         0.448676
