19
Iteration:   886charge 0 multiplicity 1
 C         2.626694         2.353583         0.834474
 C         2.419986         0.864647         1.134061
 C         2.748114         0.435163         2.544464
 C         2.031654        -0.843750         2.504650
 O         0.593169        -0.624969         2.259272
 C         1.038665        -0.192559         0.952267
 C         0.098204         0.290895        -0.219843
 C         2.196948        -1.123245         0.901150
 O         3.088841        -0.205182         0.338406
 H         1.757987         2.940584         0.562981
 H         3.237232         2.949975         1.627758
 H         3.217671         2.490082        -0.130736
 H         3.960742         0.182641         2.643914
 H         2.443270         1.100962         3.355193
 H         2.284926        -1.714811         3.157474
 H        -0.637797        -0.496506        -0.693533
 H        -0.582716         1.109084         0.092229
 H         0.779792         0.815257        -0.998423
 H         2.259763        -2.083639         0.350513
