19
Iteration:  3741charge 0 multiplicity 1
 C         1.593978         2.603221         1.711978
 C         1.860457         1.036983         1.604484
 C         1.604287         0.115867         2.853536
 C         2.035969        -1.191756         2.152836
 O         0.979834        -1.370916         1.110197
 C         1.503653        -0.172672         0.440739
 C         1.002420        -0.257033        -0.990853
 C         2.972526        -0.607874         0.916988
 O         3.271596         0.815980         1.359026
 H         0.729855         2.917619         2.336801
 H         2.454833         2.991280         2.310261
 H         1.514538         3.063118         0.689523
 H         2.448370         0.344861         3.564575
 H         0.554483         0.192840         3.306970
 H         2.085998        -2.131520         2.782509
 H         1.393577        -1.147243        -1.461436
 H        -0.007658         0.193876        -1.134461
 H         1.566969         0.577548        -1.456601
 H         3.935696        -1.002985         0.609665
