19
Iteration:  1471
 C         2.555428         2.285788         0.758094
 C         2.342976         0.889564         1.208446
 C         2.696377         0.462788         2.638616
 C         2.010470        -0.934304         2.469961
 O         0.612183        -0.602978         2.160226
 C         1.074090        -0.134844         0.864746
 C         0.020102         0.309385        -0.184987
 C         2.273240        -1.111661         0.830690
 O         3.256118        -0.164060         0.462834
 H         2.498070         3.032002         1.557187
 H         3.616949         2.328227         0.435512
 H         1.769779         2.586284        -0.018346
 H         3.769034         0.245420         2.870169
 H         2.282716         1.064806         3.375624
 H         2.216223        -1.838843         3.068233
 H        -0.604090        -0.470426        -0.573139
 H        -0.430518         1.073601         0.363654
 H         0.585889         0.632510        -1.105217
 H         2.294973        -2.147038         0.373187
