19
Iteration:  2026charge 0 multiplicity 1
 C         2.300842         2.347899         0.936134
 C         2.415290         0.911214         1.259599
 C         2.599916         0.357055         2.784123
 C         1.987070        -0.980214         2.426409
 O         0.542803        -0.739541         2.015484
 C         1.148709        -0.100165         0.812478
 C         0.192327         0.125478        -0.341434
 C         2.398428        -1.072732         0.853249
 O         3.353923         0.121356         0.463179
 H         1.271393         2.653153         0.672027
 H         2.503374         2.936945         1.933647
 H         3.137075         2.624277         0.227300
 H         3.665047         0.623749         3.243532
 H         1.853135         0.833161         3.345060
 H         2.098287        -1.880689         2.993986
 H         0.497162         0.824382        -1.133976
 H        -0.003363        -0.863852        -0.845452
 H        -0.766021         0.479749         0.227929
 H         2.458823        -1.963927         0.247139
