19
Iteration:  1215
 C         2.688621         2.403249         0.786578
 C         2.430893         0.887122         1.133292
 C         2.657621         0.426596         2.658023
 C         2.066418        -0.991751         2.369554
 O         0.574394        -0.606678         2.257070
 C         1.001005        -0.057309         0.957150
 C         0.093123         0.182795        -0.179707
 C         2.173174        -1.114475         0.881283
 O         3.152951        -0.115918         0.365048
 H         2.510612         3.120939         1.680035
 H         3.847558         2.431100         0.615949
 H         2.045674         2.671652        -0.070944
 H         3.701711         0.484628         2.896799
 H         1.947253         0.875506         3.448459
 H         2.325670        -1.939273         3.027686
 H        -0.534948        -0.710429        -0.502454
 H        -0.456363         1.149207        -0.333790
 H         0.867701         0.204121        -0.959787
 H         2.335155        -2.123055         0.314293
