19
Iteration:  2251
 C         2.199769         2.387995         1.039503
 C         2.272321         0.944851         1.349520
 C         2.384412         0.382244         2.804228
 C         2.040157        -1.056443         2.330354
 O         0.638269        -0.853321         1.893247
 C         1.270089        -0.180287         0.720375
 C         0.179327         0.127949        -0.439072
 C         2.587998        -0.970892         0.868718
 O         3.352832         0.184042         0.629483
 H         2.852572         2.650867         0.219906
 H         1.168601         2.518966         0.767284
 H         2.522669         3.094218         1.870136
 H         3.317536         0.668733         3.314683
 H         1.547177         0.672509         3.398519
 H         2.088910        -1.885953         3.028422
 H         0.437506         1.031532        -0.955486
 H         0.177110        -0.654155        -1.194619
 H        -0.693875         0.218154         0.086124
 H         3.091650        -1.795550         0.355123
