19
Iteration:  1095
 C         2.639051         2.432374         0.806826
 C         2.329144         0.873670         1.088117
 C         2.729830         0.453229         2.571732
 C         2.007627        -0.958811         2.448564
 O         0.606953        -0.689788         2.212350
 C         1.056102        -0.123441         0.914087
 C         0.077019         0.326412        -0.143661
 C         2.243448        -1.104418         0.903546
 O         3.169813        -0.228467         0.403538
 H         1.734541         3.018360         0.918690
 H         3.468422         2.619104         1.457387
 H         2.766413         2.531703        -0.231090
 H         3.777547         0.494092         2.617446
 H         2.251958         1.093785         3.323168
 H         2.165087        -1.751517         3.160730
 H        -0.687232        -0.454900        -0.369445
 H        -0.289850         1.305272         0.187702
 H         0.722615         0.557957        -0.932055
 H         2.237247        -2.083486         0.284723
