19
Iteration:  1851
 C         2.453524         2.300756         0.842968
 C         2.360990         0.864432         1.287873
 C         2.631260         0.374106         2.736396
 C         2.005233        -0.978604         2.410676
 O         0.621371        -0.638752         2.101727
 C         1.083901        -0.076073         0.789658
 C         0.102182         0.184898        -0.325665
 C         2.395195        -1.053696         0.876372
 O         3.224289         0.019485         0.480216
 H         3.257912         2.417971         0.125735
 H         1.473373         2.627228         0.460042
 H         2.864356         2.973788         1.682905
 H         3.730607         0.180588         2.807922
 H         2.212837         0.831731         3.591050
 H         2.079466        -1.710661         3.275393
 H         0.132284        -0.703482        -0.905301
 H        -0.919566         0.264466        -0.022781
 H         0.239571         1.127099        -0.799945
 H         2.577341        -2.049732         0.394680
