19
Iteration:  1874charge 0 multiplicity 1
 C         2.432418         2.375688         0.809352
 C         2.324696         0.914549         1.230144
 C         2.588580         0.453086         2.695218
 C         2.067912        -1.071025         2.380985
 O         0.590453        -0.687812         2.158549
 C         1.059270        -0.188870         0.840819
 C         0.227613         0.209707        -0.264858
 C         2.298844        -1.039829         0.789065
 O         3.267148        -0.012058         0.557854
 H         3.031837         2.424706        -0.087645
 H         1.446121         2.887138         0.687128
 H         3.120278         2.850860         1.552398
 H         3.661094         0.622380         3.020425
 H         1.935293         0.876782         3.375486
 H         2.269888        -1.959268         3.025923
 H        -0.270599        -0.638527        -0.697108
 H        -0.494315         0.924160        -0.013109
 H         0.847132         0.755705        -0.971771
 H         2.304575        -1.952187         0.222750
