19
Iteration:  2730charge 0 multiplicity 1
 C         1.879214         2.476038         1.196327
 C         2.117915         0.970756         1.475346
 C         2.044957         0.232094         2.903969
 C         2.085366        -1.160007         2.187867
 O         0.720640        -1.110275         1.610947
 C         1.380981        -0.222572         0.631675
 C         0.524884         0.032991        -0.635629
 C         2.714807        -0.773015         0.854639
 O         3.432657         0.520507         1.005159
 H         2.216450         3.195278         1.936271
 H         2.241559         2.737479         0.142041
 H         0.739573         2.717733         1.201751
 H         3.067696         0.462071         3.240455
 H         1.289100         0.566445         3.621210
 H         2.258243        -2.153969         2.668391
 H         1.118421         0.358270        -1.495528
 H         0.152033        -0.909273        -1.003806
 H        -0.219734         0.786956        -0.463704
 H         3.287718        -1.560814         0.269014
