19
Iteration:  2005
 C         2.429673         2.420831         0.983967
 C         2.255178         0.937681         1.251891
 C         2.468113         0.436237         2.641814
 C         2.062155        -0.999879         2.386695
 O         0.658833        -0.751282         2.075300
 C         1.085852        -0.159852         0.832157
 C         0.263912         0.105496        -0.351421
 C         2.390036        -1.003991         0.776829
 O         3.211513        -0.000391         0.571395
 H         1.504442         2.921727         0.596554
 H         2.605345         3.121451         1.938014
 H         3.322672         2.541739         0.282040
 H         3.678913         0.386873         2.731021
 H         2.080843         0.848089         3.516826
 H         2.224371        -1.829466         3.045386
 H         0.469093         1.140121        -0.661879
 H         0.516977        -0.580585        -1.147561
 H        -0.799974         0.039522         0.053655
 H         2.575559        -1.967036         0.375908
