19
Iteration:  2009
 C         2.420598         2.409137         1.000335
 C         2.304395         0.893998         1.273773
 C         2.489679         0.456116         2.631612
 C         2.043361        -1.015146         2.378914
 O         0.659545        -0.742559         2.059479
 C         1.116784        -0.156250         0.839845
 C         0.222767         0.102423        -0.345145
 C         2.378480        -0.983688         0.789537
 O         3.230553         0.019323         0.551767
 H         1.482793         2.873777         0.597462
 H         2.500409         3.100965         1.819043
 H         3.157494         2.574528         0.248556
 H         3.507308         0.316148         2.818593
 H         2.046320         0.907410         3.575273
 H         2.147574        -1.814513         3.147647
 H         0.609229         1.077189        -0.654748
 H         0.425397        -0.646122        -1.096753
 H        -0.821378         0.119733        -0.086878
 H         2.557594        -1.981389         0.365121
