19
Iteration:  1927
 C         2.393806         2.322634         0.859142
 C         2.293141         0.869080         1.215976
 C         2.530530         0.404937         2.681901
 C         2.010150        -0.974715         2.384347
 O         0.630846        -0.662144         2.055310
 C         1.124825        -0.137837         0.725631
 C         0.065791         0.222643        -0.246430
 C         2.474306        -1.066079         0.802176
 O         3.344003         0.011771         0.655700
 H         1.831316         2.420921        -0.043505
 H         2.064423         2.924564         1.726372
 H         3.465743         2.689105         0.779036
 H         3.640894         0.339232         2.922840
 H         1.936437         0.811213         3.472647
 H         2.160885        -1.790465         3.134826
 H        -0.898994         0.095955         0.204778
 H         0.249504         1.240617        -0.637694
 H         0.129119        -0.484277        -1.068469
 H         2.683318        -2.090148         0.400163
