19
Iteration:  4527
 C         1.383096         2.452081         1.653910
 C         1.846383         1.004710         1.551887
 C         1.737886         0.143471         2.861775
 C         2.154183        -1.201231         2.061615
 O         0.941577        -1.370106         1.207118
 C         1.527985        -0.257270         0.501867
 C         1.061069        -0.094862        -0.895783
 C         2.945855        -0.459780         0.865115
 O         3.279347         0.820834         1.368150
 H         0.267716         2.482566         1.632561
 H         1.849304         3.018973         2.466622
 H         1.642728         3.036499         0.793526
 H         2.534558         0.408631         3.583716
 H         0.837114        -0.181703         3.475061
 H         2.579280        -2.123171         2.430798
 H        -0.020122         0.098984        -0.773448
 H         1.565099         0.680261        -1.571561
 H         1.214419        -1.171255        -1.306911
 H         3.699794        -1.059849         0.198516
