19
Iteration:  4946
 C         1.196643         2.312855         1.541920
 C         1.913562         0.926362         1.579221
 C         1.743111         0.030161         2.789936
 C         2.207502        -1.210535         2.049248
 O         1.094041        -1.290878         1.148466
 C         1.556016        -0.163846         0.552097
 C         0.774266         0.022291        -0.737884
 C         3.134839        -0.468838         0.990237
 O         3.336494         0.841099         1.295941
 H         0.098824         2.162028         1.505531
 H         1.399370         3.014888         2.351218
 H         1.663218         2.762300         0.586856
 H         2.432651         0.389650         3.573799
 H         0.724411        -0.070485         3.200885
 H         2.532606        -2.116273         2.514153
 H        -0.250885        -0.136770        -0.439245
 H         0.759276         1.042674        -1.208899
 H         1.097383        -0.757875        -1.501888
 H         3.941062        -1.027095         0.464785
