19
Iteration:  2916charge 0 multiplicity 1
 C         1.778502         2.505812         1.305969
 C         2.052702         0.962564         1.491487
 C         1.936467         0.262162         2.891476
 C         2.089032        -1.187358         2.139198
 O         0.797691        -1.212855         1.470642
 C         1.381565        -0.179063         0.593595
 C         0.684481        -0.023227        -0.737695
 C         2.852132        -0.743054         0.925259
 O         3.352624         0.613619         1.101395
 H         0.802247         2.848437         1.715653
 H         2.535449         3.031978         1.903186
 H         1.763656         2.874855         0.310252
 H         2.678616         0.510861         3.589418
 H         0.928991         0.245293         3.444949
 H         2.317973        -2.132522         2.656757
 H         0.514072         1.014346        -0.961178
 H         1.062024        -0.585023        -1.612000
 H        -0.302187        -0.567744        -0.571025
 H         3.578693        -1.385146         0.398075
