19
Iteration:  3669
 C         1.309511         2.331836         1.401251
 C         1.902085         0.939344         1.541358
 C         1.786020         0.148777         2.907263
 C         1.987919        -1.138447         2.269881
 O         0.912649        -1.396308         1.214928
 C         1.602000        -0.315174         0.505488
 C         1.120577         0.306665        -0.827799
 C         2.985007        -0.698596         0.961965
 O         3.300752         0.766843         1.290975
 H         0.238605         2.265912         1.172914
 H         1.399592         3.093073         2.152809
 H         1.766772         2.692002         0.441971
 H         2.543299         0.634965         3.614255
 H         0.816022         0.208848         3.241457
 H         2.232253        -2.193837         2.633128
 H         1.370822        -0.437330        -1.648225
 H         0.115551         0.692968        -0.716816
 H         1.800295         1.110572        -1.087532
 H         3.569212        -1.452781         0.331057
