19
Iteration:  4387
 C         1.348253         2.380103         1.821495
 C         1.874262         1.050891         1.606487
 C         1.737890         0.195619         2.861480
 C         2.067291        -1.160465         2.181131
 O         0.926919        -1.228676         1.226323
 C         1.538489        -0.212647         0.471409
 C         1.053287        -0.207318        -1.088423
 C         3.007899        -0.563257         0.934878
 O         3.350422         0.769887         1.196813
 H         0.281679         2.096275         2.117634
 H         2.074592         2.941091         2.471732
 H         1.356954         2.935838         0.876197
 H         2.516959         0.371371         3.630356
 H         0.689968         0.190758         3.332730
 H         2.235455        -2.053248         2.757136
 H         1.821387        -0.235018        -1.822775
 H         0.223594        -0.835566        -1.400308
 H         0.573134         0.750849        -1.374142
 H         3.847234        -1.167104         0.514085
