19
Iteration:  2527charge 0 multiplicity 1
 C         1.936989         2.410218         1.091631
 C         2.145342         0.915682         1.450233
 C         2.245200         0.254774         2.883223
 C         2.112381        -1.109211         2.244603
 O         0.699611        -1.021543         1.825348
 C         1.261961        -0.198665         0.724092
 C         0.539306         0.136281        -0.641092
 C         2.607819        -0.848236         0.816692
 O         3.362023         0.418567         0.828245
 H         2.568438         2.747080         0.203086
 H         0.855223         2.598024         0.835993
 H         2.237218         3.170350         1.806658
 H         3.224111         0.368440         3.359093
 H         1.396422         0.467555         3.623318
 H         2.275724        -2.015685         2.804933
 H         0.967346        -0.408544        -1.449089
 H        -0.481330        -0.142913        -0.610800
 H         0.457167         1.256211        -0.690563
 H         2.903695        -1.685019         0.172412
