19
Iteration:  1978
 C         2.490803         2.371774         0.953012
 C         2.377121         0.933267         1.289913
 C         2.517113         0.439300         2.709859
 C         2.012825        -1.025343         2.434112
 O         0.608694        -0.790561         2.053621
 C         1.072798        -0.136810         0.839685
 C         0.162848         0.069384        -0.365298
 C         2.399270        -1.001350         0.844043
 O         3.234002         0.125265         0.466967
 H         1.593757         2.670321         0.373414
 H         2.776147         2.981755         1.777518
 H         3.406527         2.433173         0.365991
 H         3.541680         0.447742         3.048805
 H         1.799481         0.971120         3.467361
 H         2.144035        -1.909930         3.120947
 H        -0.163002         1.169042        -0.332589
 H         0.860882         0.049688        -1.277062
 H        -0.743281        -0.520271        -0.321176
 H         2.473126        -2.012926         0.323130
