19
Iteration:  3180
 C         1.372198         2.376909         1.419675
 C         1.914741         0.952532         1.572483
 C         1.841314         0.214718         2.857071
 C         2.117800        -1.161015         2.162530
 O         0.882917        -1.291067         1.310207
 C         1.513294        -0.283238         0.537970
 C         0.998934         0.101216        -0.789963
 C         2.964642        -0.688589         0.938787
 O         3.319259         0.728559         1.169743
 H         0.292947         2.153039         1.351863
 H         1.588519         3.039351         2.261936
 H         1.742835         3.047601         0.621555
 H         2.707839         0.487461         3.591146
 H         0.947039         0.142386         3.429351
 H         2.176920        -1.896624         2.971068
 H         1.875055         0.619561        -1.289365
 H         0.617336        -0.753355        -1.367046
 H         0.149342         0.837992        -0.711652
 H         3.577631        -1.388591         0.413255
