19
Iteration:  4963
 C         1.346245         2.324993         1.597236
 C         1.854667         0.985303         1.613463
 C         1.721834         0.086332         2.916709
 C         2.192744        -1.137492         2.133315
 O         1.087828        -1.410797         1.150216
 C         1.646949        -0.217195         0.347954
 C         0.766448        -0.047134        -0.835551
 C         3.032937        -0.478487         0.837571
 O         3.311763         0.927626         1.362961
 H         0.340093         2.180787         1.978908
 H         1.900962         2.837184         2.439645
 H         1.426142         2.798714         0.629379
 H         2.318266         0.431995         3.790522
 H         0.691638        -0.074992         3.203088
 H         2.408385        -2.149957         2.648753
 H        -0.200347        -0.494719        -0.442689
 H         0.659048         0.980189        -1.075471
 H         1.099916        -0.533490        -1.707957
 H         3.817379        -0.991357         0.327437
