19
Iteration:   807charge 0 multiplicity 1
 C         2.597485         2.222190         0.715547
 C         2.371045         0.851607         1.168286
 C         2.617929         0.420574         2.577041
 C         1.978911        -0.914699         2.416698
 O         0.645212        -0.570521         2.084766
 C         1.147031        -0.138906         0.844313
 C        -0.019961         0.337804        -0.013896
 C         2.303546        -1.141310         0.857633
 O         3.221880        -0.136217         0.496235
 H         1.796972         2.808249         1.310641
 H         3.521636         2.800308         1.021208
 H         2.571852         2.437979        -0.377744
 H         3.835503         0.380397         2.575666
 H         2.198076         1.024845         3.439609
 H         2.049305        -1.667997         3.223144
 H        -0.888367        -0.136980         0.414084
 H        -0.028055         1.496268         0.134947
 H         0.150819         0.069542        -1.108080
 H         2.532798        -2.120626         0.618657
