19
Iteration:  2894charge 0 multiplicity 1
 C         1.754753         2.465346         1.331126
 C         2.001557         0.964001         1.536137
 C         1.919554         0.255855         2.839381
 C         2.088657        -1.113498         2.319609
 O         0.820079        -1.221233         1.500527
 C         1.393664        -0.301954         0.542322
 C         0.692401         0.066277        -0.676199
 C         2.814080        -0.713550         0.838503
 O         3.407586         0.561899         0.976272
 H         0.722609         2.775826         1.075589
 H         1.993254         3.044168         2.248367
 H         2.344393         2.823350         0.515153
 H         2.619806         0.407948         3.595037
 H         0.886649         0.472869         3.267253
 H         2.244713        -1.988280         2.972322
 H         0.284824         1.048878        -0.552208
 H         1.456100         0.129367        -1.471416
 H        -0.025565        -0.709948        -1.047842
 H         3.438306        -1.488517         0.334701
