19
Iteration:   352charge 0 multiplicity 1
 C         2.576665         2.339065         0.692481
 C         2.399001         0.930082         1.219009
 C         2.704220         0.396267         2.617915
 C         1.909922        -0.945197         2.382865
 O         0.585873        -0.566283         2.055593
 C         1.118410        -0.109931         0.827808
 C         0.008462         0.276993         0.011194
 C         2.284152        -1.110845         0.897230
 O         3.288504        -0.215701         0.514714
 H         2.031092         2.926302         1.265199
 H         3.592261         2.548031         0.582816
 H         2.186426         2.489925        -0.265631
 H         3.779418         0.302351         2.581346
 H         2.469389         0.848779         3.532050
 H         2.037642        -1.664117         3.131505
 H        -0.828805        -0.356718        -0.158447
 H        -0.451376         1.187152         0.387325
 H         0.371042         0.506667        -1.042849
 H         2.380043        -2.160408         0.420957
