19
Iteration:  1872
 C         2.434801         2.364346         0.821109
 C         2.319821         0.938296         1.229849
 C         2.607489         0.439254         2.695223
 C         2.065415        -1.066988         2.385123
 O         0.590169        -0.674174         2.157688
 C         1.066058        -0.207418         0.847159
 C         0.217554         0.205633        -0.280656
 C         2.297605        -1.035402         0.786416
 O         3.266541        -0.007784         0.560815
 H         3.037976         2.387255        -0.070984
 H         1.455192         2.814611         0.641667
 H         3.127127         2.870137         1.547520
 H         3.638457         0.650121         3.031563
 H         1.933672         0.929576         3.400773
 H         2.285214        -1.997312         2.990603
 H        -0.267902        -0.597392        -0.788500
 H        -0.571760         0.887894        -0.008253
 H         0.816989         0.761738        -0.923444
 H         2.298361        -2.013487         0.218516
