19
Iteration:  4947charge 0 multiplicity 1
 C         1.208151         2.311105         1.544068
 C         1.919813         0.920214         1.582579
 C         1.736378         0.033076         2.794884
 C         2.199526        -1.210109         2.046631
 O         1.099628        -1.288276         1.151877
 C         1.565492        -0.168739         0.544421
 C         0.773970         0.017983        -0.741087
 C         3.126926        -0.457075         0.987049
 O         3.330686         0.837864         1.296132
 H         0.098965         2.163894         1.526307
 H         1.419031         3.001401         2.339368
 H         1.629115         2.788625         0.602103
 H         2.426426         0.368498         3.571831
 H         0.704556        -0.054404         3.210691
 H         2.548359        -2.079516         2.516909
 H        -0.245430        -0.164335        -0.435212
 H         0.723414         1.052265        -1.214522
 H         1.091138        -0.762448        -1.512543
 H         3.954424        -1.017130         0.459330
