19
Iteration:  1212charge 0 multiplicity 1
 C         2.686498         2.395866         0.800024
 C         2.443315         0.870628         1.148706
 C         2.632434         0.450578         2.642556
 C         2.061347        -1.017834         2.371896
 O         0.575460        -0.588544         2.252906
 C         0.994485        -0.099876         0.933834
 C         0.105100         0.192006        -0.147274
 C         2.170384        -1.131882         0.875277
 O         3.147385        -0.110766         0.354028
 H         2.485223         3.093975         1.616950
 H         3.808034         2.413269         0.635337
 H         2.113753         2.755240        -0.063144
 H         3.819556         0.574725         2.892214
 H         1.995837         0.880568         3.371439
 H         2.298716        -1.798974         3.033011
 H        -0.479658        -0.714383        -0.478935
 H        -0.443721         1.112903        -0.297307
 H         0.874217         0.376915        -0.994551
 H         2.395533        -1.985007         0.417710
