19
Iteration:  1374charge 0 multiplicity 1
 C         2.637546         2.436143         0.841240
 C         2.450415         0.856393         1.100768
 C         2.612539         0.377258         2.655528
 C         2.018798        -0.962285         2.462856
 O         0.647669        -0.477185         2.172751
 C         1.102472        -0.071997         0.888868
 C        -0.011180         0.163221        -0.130967
 C         2.257112        -1.154808         0.846124
 O         3.176374        -0.226331         0.375106
 H         1.740673         2.971356         1.127823
 H         3.497238         2.843286         1.388692
 H         2.794462         2.613473        -0.266440
 H         3.779732         0.391999         2.788380
 H         2.216556         1.134812         3.218936
 H         2.081086        -1.713857         3.229845
 H        -0.114326        -0.693982        -0.870518
 H        -0.916919         0.364421         0.412237
 H         0.273991         1.128600        -0.665819
 H         2.216822        -2.078728         0.237834
