19
Iteration:  1112
 C         2.605984         2.294208         0.669345
 C         2.436931         0.867491         1.197715
 C         2.671830         0.402308         2.631325
 C         2.031408        -0.943869         2.474754
 O         0.593440        -0.642537         2.196053
 C         1.051439        -0.207623         0.904427
 C         0.076370         0.360213        -0.084083
 C         2.223252        -1.125155         0.811751
 O         3.178121        -0.081479         0.404547
 H         1.640318         2.844524         0.752072
 H         3.375195         2.849985         1.335321
 H         3.045593         2.355846        -0.388968
 H         3.822504         0.191892         2.766087
 H         2.281423         1.025932         3.465878
 H         2.162486        -1.698448         3.263342
 H        -0.541824        -0.354577        -0.629895
 H        -0.628708         1.117919         0.336187
 H         0.586164         1.031486        -0.885821
 H         2.307523        -2.121215         0.454797
