19
Iteration:   884charge 0 multiplicity 1
 C         2.629619         2.343454         0.831720
 C         2.405434         0.872359         1.128483
 C         2.748435         0.443320         2.555318
 C         2.017782        -0.851629         2.503916
 O         0.590894        -0.627871         2.269062
 C         1.042854        -0.196580         0.941024
 C         0.101556         0.284652        -0.222934
 C         2.197364        -1.126949         0.898121
 O         3.096049        -0.198852         0.333778
 H         1.701668         2.974301         0.553661
 H         3.246668         2.963724         1.589797
 H         3.269433         2.478172        -0.129146
 H         3.941902         0.200236         2.621655
 H         2.477621         1.104801         3.365963
 H         2.301134        -1.761753         3.143343
 H        -0.624998        -0.462336        -0.624544
 H        -0.527561         1.164337         0.157761
 H         0.829050         0.789666        -0.961800
 H         2.232827        -2.019968         0.354345
