19
Iteration:  1549charge 0 multiplicity 1
 C         2.619104         2.449606         0.688274
 C         2.423867         0.940714         1.188271
 C         2.685959         0.368755         2.649162
 C         1.946489        -1.015303         2.466568
 O         0.585267        -0.689596         2.255524
 C         1.034277        -0.082188         0.938531
 C         0.090134         0.207032        -0.179405
 C         2.233193        -1.047217         0.818982
 O         3.226878        -0.106675         0.419156
 H         1.585015         2.894326         0.631833
 H         3.429532         3.100529         1.218810
 H         3.061236         2.371242        -0.372109
 H         3.850670         0.136453         2.707671
 H         2.343810         0.791942         3.548519
 H         2.080505        -1.980996         3.086079
 H        -0.976315         0.164664         0.208006
 H         0.111756         1.251612        -0.483123
 H         0.370429        -0.437144        -1.098989
 H         2.314764        -1.973682         0.261705
