19
Iteration:  1884
 C         2.444775         2.392204         0.778607
 C         2.323438         0.838538         1.234525
 C         2.489928         0.440363         2.669707
 C         2.038840        -0.994471         2.355958
 O         0.619032        -0.777403         2.116707
 C         1.147544        -0.056719         0.926763
 C         0.233911         0.248306        -0.240958
 C         2.313110        -1.074342         0.845171
 O         3.259176        -0.033804         0.507339
 H         2.786832         2.566007        -0.222439
 H         1.529544         3.004585         0.927831
 H         3.041667         2.924240         1.574366
 H         3.587375         0.441796         2.909134
 H         1.859023         0.793888         3.413801
 H         2.160167        -1.722923         3.194635
 H        -0.354309        -0.611995        -0.412809
 H        -0.342182         1.073334         0.033667
 H         0.838979         0.352774        -1.105010
 H         2.509903        -1.937749         0.206202
