19
Iteration:   921
 C         2.574031         2.285074         0.756755
 C         2.418762         0.836849         1.184971
 C         2.668845         0.340484         2.604288
 C         1.970624        -0.961550         2.395998
 O         0.638983        -0.389715         2.241877
 C         1.131145        -0.038918         0.886247
 C         0.070214         0.171823        -0.067796
 C         2.202302        -1.056196         0.776147
 O         3.239546        -0.175260         0.403973
 H         1.680290         2.771588         0.899216
 H         3.347877         2.722338         1.406834
 H         2.943378         2.164841        -0.233920
 H         3.801765         0.176609         2.769132
 H         2.183535         1.010919         3.404545
 H         2.003729        -1.739930         3.065499
 H        -0.189965        -0.775006        -0.722361
 H        -0.769150         0.376532         0.568394
 H         0.091914         0.929801        -0.839281
 H         1.989738        -2.084676         0.250396
