19
Iteration:  3962charge 0 multiplicity 1
 C         1.322325         2.302322         1.470429
 C         1.975478         0.964597         1.525647
 C         1.782932         0.164326         2.885671
 C         1.966652        -1.210116         2.167837
 O         0.852559        -1.210157         1.269597
 C         1.528258        -0.219548         0.460825
 C         1.132829         0.143151        -0.878453
 C         2.967395        -0.671355         0.992651
 O         3.380171         0.714135         1.304422
 H         0.357234         2.244824         2.015925
 H         1.978935         3.127857         1.755305
 H         1.045281         2.513953         0.427317
 H         2.691904         0.399804         3.535204
 H         0.831498         0.296895         3.414260
 H         2.144141        -2.175872         2.575686
 H         1.139701        -0.793243        -1.539586
 H         0.061309         0.262583        -0.697313
 H         1.674990         1.021169        -1.341956
 H         3.826169        -1.197926         0.515223
