19
Iteration:  1670charge 0 multiplicity 1
 C         2.586970         2.326318         0.804018
 C         2.320728         0.894762         1.184596
 C         2.643786         0.418095         2.603415
 C         2.081873        -1.000685         2.401817
 O         0.654232        -0.596987         2.186547
 C         1.060486        -0.099370         0.896385
 C         0.139752         0.190783        -0.188788
 C         2.194257        -1.105709         0.803160
 O         3.158931        -0.056077         0.493528
 H         2.068787         3.050160         1.482909
 H         3.711548         2.469512         0.826296
 H         2.423160         2.610821        -0.235326
 H         3.792560         0.433588         2.851475
 H         2.040246         0.874578         3.388155
 H         2.154671        -1.766753         3.163627
 H        -0.424054         1.082797         0.167640
 H         0.621192         0.342308        -1.154494
 H        -0.442708        -0.741997        -0.305997
 H         2.271466        -1.959324         0.222306
