19
Iteration:  3870
 C         1.506318         2.486596         1.562084
 C         1.961334         0.992710         1.582155
 C         1.637119         0.184683         2.792358
 C         2.062441        -1.171845         2.171161
 O         0.987542        -1.467456         1.205871
 C         1.514899        -0.268949         0.535534
 C         0.992525         0.079547        -0.889147
 C         2.906426        -0.591849         0.934144
 O         3.328138         0.749175         1.317664
 H         0.472409         2.744098         1.401611
 H         1.945526         2.979991         2.438177
 H         2.049526         3.013314         0.777445
 H         2.194955         0.428710         3.704551
 H         0.518864         0.130138         2.957130
 H         2.353217        -2.014002         2.870871
 H         0.909383        -0.827338        -1.526651
 H        -0.116031         0.372558        -0.878417
 H         1.600857         0.801778        -1.468891
 H         3.635508        -1.231456         0.426761
