19
Iteration:  2729
 C         1.875278         2.461816         1.200119
 C         2.118036         0.976103         1.474097
 C         2.046450         0.232545         2.901956
 C         2.079407        -1.163667         2.191494
 O         0.724537        -1.102133         1.609606
 C         1.374781        -0.225419         0.639210
 C         0.520291         0.041380        -0.634757
 C         2.726443        -0.770264         0.849808
 O         3.432600         0.517354         1.004429
 H         2.193313         3.150539         1.946215
 H         2.247982         2.732908         0.162610
 H         0.730445         2.715898         1.138052
 H         3.081188         0.472170         3.238797
 H         1.333293         0.565299         3.598100
 H         2.235292        -2.137900         2.741780
 H         1.123797         0.398463        -1.502607
 H         0.191589        -0.902477        -1.025402
 H        -0.238790         0.730317        -0.490126
 H         3.280618        -1.559059         0.249398
