19
Iteration:  1340
 C         2.581875         2.247240         0.667641
 C         2.371872         0.839409         1.226101
 C         2.712026         0.368697         2.691167
 C         2.057953        -0.965845         2.405480
 O         0.606300        -0.556801         2.191838
 C         1.068450        -0.046805         0.944314
 C         0.082064         0.231639        -0.128536
 C         2.198015        -1.036035         0.820085
 O         3.169918        -0.076745         0.446087
 H         1.651425         2.816045         0.589611
 H         3.283128         2.825337         1.240030
 H         3.090923         2.079945        -0.357577
 H         3.853469         0.168300         2.601998
 H         2.418337         0.896272         3.567321
 H         2.174377        -1.817640         2.974824
 H        -0.373089        -0.673901        -0.550185
 H        -0.706646         0.876672         0.212735
 H         0.698856         0.806122        -0.919375
 H         2.183417        -2.059396         0.266695
