19
Iteration:   563charge 0 multiplicity 1
 C         2.495657         2.299416         0.845947
 C         2.447171         0.864982         1.152849
 C         2.746659         0.392706         2.641469
 C         2.029185        -0.979813         2.464737
 O         0.566846        -0.513988         2.243142
 C         1.082618        -0.093792         0.884819
 C         0.120134         0.284347        -0.255821
 C         2.195202        -1.109998         0.863874
 O         3.226417        -0.186854         0.373590
 H         1.840542         2.975285         1.384629
 H         3.513292         2.756004         0.939564
 H         2.153487         2.566545        -0.180865
 H         3.827800         0.326064         2.763825
 H         2.318486         1.139199         3.449528
 H         2.207212        -1.873186         3.201637
 H        -0.813959        -0.430857        -0.307083
 H        -0.289877         1.362063        -0.194935
 H         0.628219         0.064077        -1.232382
 H         2.089698        -2.132143         0.476716
