19
Iteration:  3259charge 0 multiplicity 1
 C         1.468796         2.437321         1.581578
 C         1.847796         0.968909         1.503397
 C         1.625905         0.105373         2.807867
 C         2.088512        -1.146705         2.236606
 O         0.981233        -1.303406         1.231900
 C         1.603007        -0.136342         0.408851
 C         0.896052        -0.094735        -0.892637
 C         3.022199        -0.529799         0.956358
 O         3.399402         0.747310         1.318895
 H         1.707243         3.019777         2.470177
 H         1.901211         2.965147         0.707039
 H         0.355443         2.393106         1.467221
 H         2.292614         0.460578         3.681205
 H         0.593109         0.062965         3.204753
 H         2.246810        -2.031006         2.844698
 H         1.083050        -1.133665        -1.401077
 H        -0.192952        -0.150201        -0.655099
 H         1.181147         0.765024        -1.506194
 H         3.708592        -1.254861         0.485167
