19
Iteration:  1628charge 0 multiplicity 1
 C         2.564022         2.277383         0.746761
 C         2.508489         0.842868         1.251674
 C         2.735235         0.452496         2.623256
 C         1.963975        -0.930731         2.429581
 O         0.613481        -0.629505         2.074208
 C         1.126745        -0.060283         0.882691
 C         0.059680         0.231475        -0.082437
 C         2.212507        -1.103200         0.790295
 O         3.160622        -0.096946         0.485043
 H         1.424187         2.603957         0.863532
 H         3.098454         2.952747         1.540284
 H         2.900472         2.419670        -0.289161
 H         3.852510         0.271094         2.820044
 H         2.378926         1.061817         3.487327
 H         2.081216        -1.632237         3.195282
 H        -0.962043         0.333781         0.446385
 H         0.292831         1.101708        -0.780855
 H        -0.093057        -0.572257        -0.867536
 H         2.161767        -2.002251         0.274086
