19
Iteration:  4165
 C         1.451302         2.326579         1.417022
 C         2.016845         0.990330         1.542652
 C         1.605465         0.160322         2.811417
 C         1.959130        -1.201166         2.210944
 O         0.900558        -1.249615         1.221307
 C         1.664373        -0.192956         0.415200
 C         0.891080         0.077560        -0.837048
 C         3.009428        -0.635453         0.972049
 O         3.452107         0.716481         1.398899
 H         0.599104         2.589211         2.079820
 H         2.229502         3.083366         1.598878
 H         1.085070         2.588744         0.341464
 H         2.200650         0.173207         3.784716
 H         0.565501         0.209882         3.061322
 H         2.131131        -2.179216         2.799234
 H         0.403773        -0.832023        -1.210785
 H         0.157576         0.832227        -0.528936
 H         1.522460         0.432886        -1.599061
 H         3.885021        -1.226860         0.700992
