19
Iteration:  1321
 C         2.547545         2.325829         0.634913
 C         2.323071         0.912994         1.213803
 C         2.702032         0.311811         2.643579
 C         1.958225        -1.037924         2.445629
 O         0.641751        -0.600003         2.243063
 C         1.093898        -0.138323         0.901675
 C         0.083645         0.373702        -0.142604
 C         2.301271        -1.194492         0.849728
 O         3.202410        -0.054295         0.407073
 H         1.608772         2.829278         0.634418
 H         3.336860         2.900422         1.141915
 H         2.907216         2.218385        -0.347258
 H         3.844873         0.460868         2.925182
 H         2.202028         1.089390         3.238142
 H         2.057058        -1.648969         3.364580
 H        -0.725341        -0.431303         0.010520
 H        -0.292924         1.348699         0.192993
 H         0.648782         0.566554        -1.102401
 H         2.353950        -2.076821         0.321832
