19
Iteration:  3306charge 0 multiplicity 1
 C         1.291987         2.393725         1.429318
 C         1.763013         0.977122         1.567297
 C         1.806762         0.098664         2.876313
 C         2.057820        -1.202681         2.217581
 O         0.990285        -1.346475         1.256308
 C         1.547134        -0.206656         0.533609
 C         1.190813         0.079140        -0.892323
 C         2.914144        -0.617661         1.001088
 O         3.251217         0.791059         1.237615
 H         2.300782         2.862181         1.471172
 H         0.832779         2.824367         0.554780
 H         0.912582         2.723980         2.349377
 H         2.686993         0.286050         3.404918
 H         1.028778         0.139485         3.742878
 H         2.237526        -2.236074         2.565677
 H         0.516805        -0.619378        -1.326272
 H         0.561441         1.026687        -0.971416
 H         2.128691         0.210570        -1.492939
 H         3.647166        -1.150297         0.343073
