19
Iteration:  4649
 C         1.340108         2.454573         1.425308
 C         1.769862         0.964405         1.545008
 C         1.712134         0.001835         2.936857
 C         2.262220        -1.245757         2.051645
 O         1.068028        -1.468091         1.216961
 C         1.566897        -0.229387         0.472732
 C         0.875361         0.122897        -0.771450
 C         3.024831        -0.503596         0.906523
 O         3.293311         0.856526         1.379583
 H         0.357212         2.664141         1.187239
 H         1.703583         2.989966         2.325913
 H         1.762999         2.954298         0.582077
 H         2.279727         0.393947         3.767353
 H         0.623328        -0.183982         3.135530
 H         2.515677        -1.972711         2.802599
 H         1.628148         0.480347        -1.593284
 H         0.386636        -0.850230        -0.996327
 H         0.102758         0.862624        -0.615408
 H         3.832674        -0.895722         0.397790
