19
Iteration:  1268charge 0 multiplicity 1
 C         2.480666         2.334350         0.732001
 C         2.429366         0.866225         1.132590
 C         2.650290         0.317746         2.646794
 C         1.986075        -1.005406         2.430071
 O         0.619796        -0.502561         2.179735
 C         1.096808        -0.119970         0.822918
 C         0.036617         0.294437        -0.130380
 C         2.306095        -1.088869         0.891001
 O         3.285664        -0.137586         0.426599
 H         2.057382         2.819698         1.649011
 H         3.576524         2.677831         0.757933
 H         2.019842         2.542558        -0.217213
 H         3.787275         0.250208         2.805031
 H         2.110168         0.885297         3.503374
 H         2.080411        -1.801527         3.239627
 H        -0.992552        -0.039258         0.260093
 H        -0.019523         1.390170        -0.016587
 H         0.128333        -0.217541        -1.082151
 H         2.503630        -2.010770         0.435011
