19
Iteration:    52charge 0 multiplicity 1
 C         2.623275         2.186695         0.630650
 C         2.379874         0.818579         1.169297
 C         2.754359         0.400192         2.677573
 C         1.996040        -0.900618         2.404931
 O         0.614547        -0.566252         2.143797
 C         1.028359        -0.083439         0.880026
 C        -0.058826         0.365503        -0.035199
 C         2.242065        -1.142539         0.867509
 O         3.274482        -0.125884         0.482733
 H         1.752064         2.887829         0.916435
 H         3.635354         2.473738         1.036724
 H         2.655450         2.382076        -0.526814
 H         3.943221         0.224384         2.560589
 H         2.364135         0.931584         3.558103
 H         2.117480        -1.645234         3.127847
 H        -0.264283        -0.249476        -0.886169
 H        -1.062915         0.607733         0.508761
 H         0.290889         1.251882        -0.561092
 H         2.328424        -2.089088         0.447520
