19
Iteration:   224charge 0 multiplicity 1
 C         2.516173         2.265019         0.700995
 C         2.454220         0.875925         1.204848
 C         2.754171         0.341816         2.646698
 C         2.020858        -0.975342         2.409645
 O         0.525761        -0.540771         2.209815
 C         1.091103        -0.041946         0.953460
 C         0.029960         0.321963        -0.104565
 C         2.238437        -1.097093         0.786357
 O         3.287047        -0.155941         0.414593
 H         1.686863         2.799348         1.172249
 H         3.338367         2.810120         1.132940
 H         2.463087         2.259847        -0.397102
 H         3.851175         0.220453         2.828069
 H         2.324678         0.955070         3.365957
 H         2.140883        -1.746694         3.127343
 H        -0.827119        -0.316139        -0.010305
 H        -0.292929         1.262984        -0.176654
 H         0.418238         0.156324        -1.162964
 H         2.200871        -2.100999         0.304440
