19
Iteration:  2134
 C         2.348604         2.446283         1.045995
 C         2.347633         0.930488         1.324483
 C         2.514471         0.402382         2.719322
 C         2.055186        -1.025087         2.348617
 O         0.653211        -0.766867         1.970820
 C         1.051575        -0.137247         0.741485
 C         0.044781         0.029820        -0.451091
 C         2.502853        -1.017406         0.812845
 O         3.329866         0.116944         0.682700
 H         2.253287         3.065780         1.874840
 H         3.303390         2.600395         0.578366
 H         1.616686         2.874025         0.359690
 H         3.602602         0.527778         3.094160
 H         1.836105         0.824756         3.383468
 H         2.258651        -1.853528         3.020576
 H        -0.300228        -0.967291        -0.759464
 H        -0.770139         0.714886        -0.160923
 H         0.748108         0.358163        -1.270918
 H         2.910629        -1.859190         0.266769
