19
Iteration:  4347charge 0 multiplicity 1
 C         1.508201         2.469378         1.553293
 C         1.791685         0.969650         1.623604
 C         1.695557         0.115479         2.861386
 C         2.108084        -1.206858         2.111800
 O         1.017183        -1.381835         1.187466
 C         1.511593        -0.196429         0.491350
 C         0.980727        -0.038798        -0.915212
 C         2.943335        -0.519198         0.970967
 O         3.294891         0.781264         1.300982
 H         0.514620         2.752138         1.825745
 H         2.074336         2.918020         2.428878
 H         1.793345         3.022848         0.617897
 H         2.485634         0.607270         3.422033
 H         0.640301        -0.098254         3.258920
 H         2.190927        -2.081199         2.858247
 H         1.765988         0.615319        -1.425504
 H         1.048005        -1.130661        -1.197663
 H        -0.039864         0.351395        -1.010387
 H         3.647198        -1.025400         0.375349
