19
Iteration:  2144charge 0 multiplicity 1
 C         2.342228         2.492013         1.070162
 C         2.336871         0.950115         1.339110
 C         2.537973         0.437447         2.754845
 C         2.055859        -1.031975         2.398197
 O         0.604072        -0.770988         1.935315
 C         1.172560        -0.192387         0.775394
 C         0.049875         0.001014        -0.464702
 C         2.487056        -0.977605         0.780693
 O         3.362106         0.086151         0.644496
 H         2.427550         2.950786         1.997654
 H         3.154049         2.800909         0.475848
 H         1.398587         2.721847         0.501693
 H         3.637186         0.524159         3.085006
 H         1.844046         0.841217         3.408140
 H         2.000023        -1.917935         3.012264
 H        -0.679798        -0.829487        -0.456221
 H        -0.630807         0.903533        -0.507701
 H         0.437912         0.131093        -1.503051
 H         2.740587        -1.874669         0.207848
