19
Iteration:   593
 C         2.470092         2.268268         0.931978
 C         2.385845         0.806158         1.076431
 C         2.718266         0.399687         2.573265
 C         2.001986        -0.919280         2.531053
 O         0.599361        -0.440166         2.137326
 C         1.141935        -0.092209         0.809991
 C         0.135655         0.290828        -0.143045
 C         2.260521        -1.161297         0.867610
 O         3.197291        -0.176390         0.376600
 H         1.629161         2.768816         1.283902
 H         3.238863         2.738528         1.607944
 H         2.586092         2.589533        -0.116833
 H         3.768570         0.172423         2.501723
 H         2.407108         1.081980         3.295313
 H         2.146712        -1.644776         3.454764
 H        -0.701876        -0.328181         0.207085
 H        -0.156890         1.230312        -0.222508
 H         0.210508        -0.078217        -1.210690
 H         2.320574        -2.332440         0.543049
