19
Iteration:  4520
 C         1.375559         2.394440         1.613796
 C         1.849557         1.027230         1.575459
 C         1.727702         0.057582         2.834466
 C         2.138164        -1.137257         2.065121
 O         0.977964        -1.341909         1.205146
 C         1.548871        -0.201951         0.507837
 C         0.980562        -0.116974        -0.912832
 C         2.993589        -0.529675         0.915646
 O         3.327367         0.835397         1.372861
 H         0.305503         2.433825         1.691623
 H         1.776040         2.963694         2.521036
 H         1.784368         2.944421         0.703341
 H         2.364086         0.472407         3.604286
 H         0.717286         0.047580         3.314711
 H         2.378275        -2.132503         2.462510
 H        -0.137521        -0.054161        -0.812624
 H         1.265989         0.810854        -1.388842
 H         1.238762        -1.005844        -1.407000
 H         3.643167        -0.852244         0.207012
