19
Iteration:    19
 C         2.556305         2.293027         0.608861
 C         2.548497         0.834273         1.112845
 C         2.610609         0.320561         2.655993
 C         1.927288        -1.004872         2.354016
 O         0.580009        -0.451966         2.208199
 C         1.156400         0.005196         0.943992
 C        -0.034391         0.282603         0.026573
 C         2.210132        -1.110987         0.810923
 O         3.382161        -0.203818         0.430337
 H         1.768741         2.806791         1.282041
 H         3.474737         2.903597         0.868263
 H         2.321438         2.318884        -0.535766
 H         3.683768         0.360786         3.170875
 H         1.964978         0.914020         3.326409
 H         2.023400        -1.807836         3.044018
 H        -0.391020        -0.667729        -0.286406
 H        -0.898713         0.787052         0.559967
 H         0.333258         0.903538        -0.751084
 H         2.202755        -2.027898         0.285172
