19
Iteration:  1880
 C         2.434501         2.397112         0.784018
 C         2.330366         0.842737         1.238307
 C         2.539937         0.460630         2.674484
 C         2.061050        -1.039239         2.359523
 O         0.603794        -0.740716         2.142172
 C         1.091599        -0.108018         0.876818
 C         0.245611         0.225873        -0.243383
 C         2.302425        -1.050964         0.825895
 O         3.263836        -0.026159         0.531429
 H         2.926859         2.527400        -0.210417
 H         1.545982         3.017480         0.854577
 H         3.014595         2.878852         1.576488
 H         3.578208         0.487811         2.916666
 H         1.783634         0.835431         3.497399
 H         2.185688        -1.795226         3.143978
 H        -0.309526        -0.720474        -0.513488
 H        -0.439356         1.118791         0.066048
 H         0.891648         0.575344        -1.094188
 H         2.441034        -1.961685         0.140511
