19
Iteration:  1791charge 0 multiplicity 1
 C         2.543177         2.242182         0.870419
 C         2.308623         0.877152         1.156795
 C         2.588078         0.434079         2.668574
 C         2.036341        -0.975587         2.431492
 O         0.625686        -0.681720         2.127585
 C         1.084294        -0.105145         0.858830
 C         0.080290         0.187539        -0.266351
 C         2.335620        -1.050449         0.870855
 O         3.259726         0.018049         0.474626
 H         3.637547         2.366083         1.005530
 H         2.467356         2.461769        -0.196167
 H         1.902596         2.876014         1.400275
 H         3.670211         0.590706         2.817582
 H         2.100389         1.080242         3.447378
 H         2.154418        -1.624964         3.240248
 H         0.453529         0.744543        -1.116895
 H        -0.457757        -0.742488        -0.451998
 H        -0.569704         0.974555         0.090145
 H         2.324274        -1.990542         0.381567
