19
Iteration:   573charge 0 multiplicity 1
 C         2.481440         2.317787         0.887075
 C         2.361265         0.818789         1.154505
 C         2.810767         0.417617         2.555793
 C         1.946785        -0.908088         2.440895
 O         0.587290        -0.469860         2.185561
 C         1.071490        -0.124519         0.866384
 C         0.125002         0.230427        -0.179766
 C         2.266028        -1.154448         0.910931
 O         3.210763        -0.180467         0.376299
 H         1.766064         2.739104         1.558568
 H         3.461311         2.653209         1.329936
 H         2.376865         2.578537        -0.187632
 H         3.856178         0.207503         2.595211
 H         2.391116         1.120174         3.352404
 H         2.044571        -1.763829         3.255022
 H        -0.948814        -0.187767        -0.222480
 H         0.107055         1.326492        -0.127498
 H         0.654167         0.152211        -1.182954
 H         2.332007        -2.156090         0.348934
