19
Iteration:  2492
 C         1.955434         2.429673         1.284041
 C         2.217139         0.948316         1.404937
 C         2.275691         0.349868         2.769525
 C         1.968125        -1.029687         2.329993
 O         0.662868        -1.013376         1.740728
 C         1.308392        -0.170625         0.662782
 C         0.469909         0.000377        -0.580651
 C         2.605733        -0.901160         0.861751
 O         3.448135         0.383978         0.734481
 H         2.888766         2.722459         0.897182
 H         1.161493         2.613384         0.527962
 H         1.644164         2.832070         2.259720
 H         3.368271         0.403094         3.146810
 H         1.548514         0.703681         3.471169
 H         2.149069        -1.894339         2.990024
 H         0.852844         0.459379        -1.481324
 H        -0.081055        -0.938300        -0.718368
 H        -0.281784         0.788884        -0.348687
 H         2.948904        -1.700897         0.199828
