19
Iteration:  4463
 C         1.320760         2.365454         1.338722
 C         1.834095         0.946871         1.545465
 C         1.727912         0.100345         2.839576
 C         2.180296        -1.183955         2.167724
 O         1.062629        -1.448175         1.199446
 C         1.514438        -0.258895         0.521510
 C         0.892795         0.269911        -0.717328
 C         3.034746        -0.573384         0.987286
 O         3.325593         0.759107         1.383294
 H         0.193006         2.315288         1.366776
 H         1.750447         2.990129         2.165112
 H         1.617858         2.591956         0.323594
 H         2.474497         0.617939         3.421327
 H         0.614935         0.047548         3.105361
 H         2.396592        -2.153437         2.557457
 H         0.420164        -0.556724        -1.266202
 H         0.234755         1.148565        -0.829011
 H         1.716544         0.479521        -1.469407
 H         3.899782        -1.015899         0.451368
