19
Iteration:  1073charge 0 multiplicity 1
 C         2.597504         2.249822         0.872347
 C         2.420804         0.810230         1.141827
 C         2.667944         0.419172         2.627926
 C         2.051572        -0.915858         2.414932
 O         0.637197        -0.503144         2.198776
 C         1.076573        -0.058989         0.916011
 C         0.080705         0.220629        -0.189823
 C         2.174986        -1.116564         0.835754
 O         3.204367        -0.119310         0.349177
 H         1.751016         2.713565         1.372570
 H         3.531667         2.556053         1.313771
 H         2.376478         2.504367        -0.129992
 H         3.692672         0.377335         2.922810
 H         2.071705         0.996323         3.335343
 H         2.233873        -1.698458         3.085261
 H        -0.711453        -0.467475         0.185539
 H        -0.255786         1.238846        -0.076898
 H         0.454012        -0.031847        -1.134494
 H         2.118571        -2.091221         0.267057
