19
Iteration:     7
 C         2.610891         2.253499         0.686138
 C         2.436399         0.845922         1.139110
 C         2.692964         0.378787         2.622962
 C         1.964684        -0.949061         2.408125
 O         0.618108        -0.516597         2.212653
 C         1.073073        -0.016903         0.901269
 C         0.046863         0.277285        -0.026170
 C         2.228296        -1.120525         0.822689
 O         3.250506        -0.159556         0.425462
 H         1.791530         2.820439         1.251383
 H         3.654163         2.642905         0.817311
 H         2.274788         2.497696        -0.392282
 H         3.806457         0.243672         2.951103
 H         2.003187         0.843772         3.357905
 H         1.967007        -1.788469         3.108713
 H        -0.545016        -0.586755        -0.368354
 H        -0.582830         1.145581         0.287512
 H         0.534608         0.559449        -0.976846
 H         2.131094        -2.150064         0.446114
