19
Iteration:  1187
 C         2.625900         2.228246         0.830551
 C         2.327877         0.793038         1.105985
 C         2.662005         0.442760         2.645673
 C         1.995284        -0.855539         2.531547
 O         0.624846        -0.598248         2.144308
 C         1.130331        -0.070861         0.825896
 C         0.042434         0.258699        -0.097543
 C         2.267920        -1.116481         0.863407
 O         3.196547        -0.124866         0.355772
 H         2.153706         2.906250         1.496470
 H         3.657506         2.256948         0.911623
 H         2.246107         2.519688        -0.170892
 H         3.797655         0.325211         2.738567
 H         2.222899         1.068494         3.442302
 H         2.145003        -1.620312         3.288820
 H        -0.439698        -0.543009        -0.590067
 H        -0.687899         0.932822         0.345365
 H         0.364305         1.055712        -0.825010
 H         2.341867        -2.057533         0.232423
