19
Iteration:  1596charge 0 multiplicity 1
 C         2.507376         2.304000         0.721238
 C         2.368386         0.798830         1.199009
 C         2.594171         0.375174         2.607214
 C         2.056285        -1.003649         2.429690
 O         0.628135        -0.478370         2.247450
 C         1.083878        -0.160168         0.811411
 C        -0.037489         0.343121        -0.115895
 C         2.363214        -1.170509         0.791504
 O         3.336303        -0.141274         0.449715
 H         1.486430         2.788933         0.544804
 H         2.999505         2.882853         1.548057
 H         3.197681         2.529017        -0.062612
 H         3.607643         0.450998         2.913982
 H         1.871608         0.859725         3.300490
 H         2.162186        -1.651855         3.230989
 H        -0.934549         0.493514         0.507177
 H         0.200462         1.438918        -0.392732
 H        -0.018588        -0.189734        -1.033435
 H         2.339862        -2.099964         0.298695
