19
Iteration:  3993
 C         1.434343         2.333683         1.345180
 C         1.851512         0.958708         1.564006
 C         1.701307         0.183360         2.901596
 C         2.091152        -1.184753         2.187579
 O         0.948338        -1.399640         1.271282
 C         1.523477        -0.263410         0.522052
 C         1.109411         0.338004        -0.779064
 C         2.963339        -0.708061         0.979742
 O         3.281537         0.681474         1.240780
 H         0.349977         2.425693         1.290855
 H         1.874756         3.135045         1.887250
 H         1.767681         2.590386         0.306401
 H         2.423690         0.522051         3.738059
 H         0.712057         0.201150         3.315782
 H         2.120751        -2.143846         2.714258
 H         0.734797        -0.514967        -1.491252
 H         0.154551         0.906939        -0.556720
 H         1.817929         1.057783        -1.255438
 H         3.856132        -1.148394         0.544649
