19
Iteration:  4406
 C         1.283789         2.422199         1.665147
 C         1.872497         0.975270         1.575663
 C         1.856859         0.160158         2.844011
 C         2.085348        -1.145500         2.148381
 O         0.918863        -1.323402         1.237435
 C         1.537751        -0.197721         0.421229
 C         1.128950        -0.058429        -0.944097
 C         2.874517        -0.599681         0.953500
 O         3.330360         0.786065         1.276230
 H         0.241766         2.272425         2.078589
 H         1.908120         2.928531         2.375322
 H         1.262786         3.107300         0.844065
 H         2.666493         0.549038         3.496877
 H         0.990129         0.134328         3.457280
 H         2.259695        -2.121609         2.559838
 H         1.863943        -0.579819        -1.554241
 H         0.210757        -0.673467        -1.023887
 H         0.906348         0.954294        -1.396434
 H         3.610206        -1.203228         0.313276
