19
Iteration:  3288charge 0 multiplicity 1
 C         1.404063         2.422061         1.574827
 C         1.894085         0.986105         1.580719
 C         1.727526         0.182506         2.836656
 C         2.084346        -1.187310         2.155663
 O         0.898634        -1.400488         1.231380
 C         1.507154        -0.254932         0.478111
 C         1.059288        -0.002639        -0.881666
 C         3.001955        -0.554296         0.950193
 O         3.337820         0.820281         1.277765
 H         2.107869         3.260700         1.735355
 H         1.076110         2.577249         0.529631
 H         0.423061         2.393650         2.126104
 H         2.404890         0.547207         3.684924
 H         0.714963         0.103108         3.105240
 H         2.243949        -2.123042         2.772007
 H         0.724120        -0.970957        -1.241953
 H         0.308218         0.758436        -0.933339
 H         1.934626         0.295016        -1.449142
 H         3.723906        -1.212511         0.528133
