19
Iteration:  3605
 C         1.388195         2.378380         1.602592
 C         1.864920         0.919205         1.574096
 C         1.715674         0.135024         2.887480
 C         1.992103        -1.165005         2.173895
 O         0.946348        -1.277735         1.132853
 C         1.575666        -0.180133         0.415535
 C         1.061435        -0.051657        -0.949513
 C         2.943583        -0.561325         1.021676
 O         3.377502         0.817506         1.372491
 H         0.310181         2.348143         1.617487
 H         1.641424         3.000933         2.442439
 H         1.666150         2.698239         0.605145
 H         2.653244         0.392196         3.476998
 H         0.808282         0.253989         3.419196
 H         2.200410        -2.158784         2.649251
 H         0.792830        -1.089859        -1.384887
 H         0.161117         0.501510        -1.193833
 H         1.924923         0.314359        -1.545395
 H         3.746469        -1.142081         0.458416
