19
Iteration:  1768
 C         2.561940         2.453714         0.735865
 C         2.339252         0.939867         1.198320
 C         2.606782         0.389970         2.714088
 C         1.981023        -0.988523         2.408201
 O         0.568941        -0.708677         2.085438
 C         1.087473        -0.194177         0.932753
 C         0.195388         0.209646        -0.132337
 C         2.339442        -1.098671         0.822707
 O         3.184543        -0.055111         0.458497
 H         3.436088         2.939511         1.146691
 H         2.846201         2.408713        -0.316261
 H         1.677686         3.006496         0.778031
 H         3.708651         0.478039         2.940324
 H         2.151115         1.013156         3.449533
 H         2.093075        -1.813329         3.069380
 H         0.516304         1.120449        -0.575910
 H         0.001422        -0.631351        -0.750390
 H        -0.716988         0.626799         0.324594
 H         2.456222        -2.039480         0.416361
