19
Iteration:   840
 C         2.557363         2.244237         0.603475
 C         2.503563         0.868962         1.266912
 C         2.675928         0.381590         2.748035
 C         2.016810        -1.015712         2.346679
 O         0.649396        -0.538704         2.197951
 C         1.110897        -0.053301         0.887879
 C        -0.031905         0.293465        -0.079236
 C         2.178268        -1.051398         0.779808
 O         3.291764        -0.166166         0.465561
 H         1.436189         2.572074         0.521358
 H         3.028993         3.079539         1.202827
 H         2.877019         2.284749        -0.488105
 H         3.837404         0.378587         3.116588
 H         2.043710         0.924200         3.478735
 H         2.052519        -1.875038         3.078649
 H        -0.990673        -0.176998         0.140423
 H        -0.288532         1.412815        -0.160457
 H         0.193275         0.110066        -1.191119
 H         2.196914        -2.012093         0.387334
