19
Iteration:  1866
 C         2.469297         2.322069         0.861561
 C         2.307635         0.956093         1.261804
 C         2.631853         0.389975         2.692730
 C         2.054422        -1.013515         2.390658
 O         0.605472        -0.641271         2.137434
 C         1.096967        -0.219228         0.891595
 C         0.147833         0.190118        -0.324742
 C         2.305560        -1.050105         0.799550
 O         3.257761         0.005656         0.545777
 H         3.014945         2.263717        -0.124429
 H         1.461775         2.686866         0.534719
 H         2.944357         3.028345         1.539735
 H         3.675663         0.633027         3.002937
 H         1.994568         0.950046         3.431056
 H         2.231799        -1.936367         2.882797
 H        -0.228152        -0.561262        -1.130845
 H        -0.777601         0.724144         0.066695
 H         0.853808         0.890295        -0.982280
 H         2.421154        -1.978738         0.319535
