19
Iteration:  2499charge 0 multiplicity 1
 C         1.934515         2.474314         1.221301
 C         2.153144         0.905482         1.414652
 C         2.291962         0.312432         2.785222
 C         2.012143        -1.092747         2.315781
 O         0.653270        -0.948573         1.704835
 C         1.327216        -0.207886         0.709812
 C         0.490869         0.048163        -0.523894
 C         2.675800        -0.886613         0.857511
 O         3.387010         0.373972         0.734056
 H         2.890983         2.847583         0.806279
 H         1.065686         2.721154         0.636303
 H         1.736037         2.978855         2.197103
 H         3.324682         0.302338         3.159403
 H         1.498774         0.713207         3.411938
 H         2.020706        -1.969868         2.986599
 H         1.075875         0.161641        -1.522990
 H        -0.150234        -0.907130        -0.552076
 H        -0.181938         0.895627        -0.434869
 H         3.025684        -1.746563         0.261054
