19
Iteration:  4215
 C         1.657465         2.549240         1.596979
 C         1.824520         0.998700         1.624707
 C         1.730531         0.175259         2.920542
 C         2.044002        -1.177559         2.187299
 O         0.871781        -1.427861         1.247409
 C         1.425041        -0.274239         0.482635
 C         1.140412        -0.055024        -1.012397
 C         2.895760        -0.573669         0.930281
 O         3.267434         0.781200         1.259413
 H         0.655237         2.627030         1.951748
 H         2.320576         3.168615         2.210996
 H         1.588628         3.026570         0.648436
 H         2.404870         0.448164         3.706178
 H         0.670193         0.041265         3.331707
 H         2.318591        -2.156750         2.555855
 H         0.236646        -0.590122        -1.362513
 H         0.904454         1.013553        -1.266521
 H         2.018259        -0.564155        -1.531810
 H         3.619264        -0.940735         0.226209
