19
Iteration:  2746
 C         1.891907         2.521083         1.238449
 C         2.087208         1.055882         1.494586
 C         2.110220         0.256854         2.863971
 C         2.042500        -1.141046         2.222966
 O         0.744377        -1.177791         1.543249
 C         1.326661        -0.191041         0.625387
 C         0.570152        -0.014513        -0.623276
 C         2.787995        -0.777725         0.845384
 O         3.366662         0.482845         0.984832
 H         2.819513         3.001041         1.663321
 H         1.847392         2.693314         0.178934
 H         0.936904         2.884488         1.572145
 H         2.795577         0.539627         3.675615
 H         1.075320         0.159700         3.333801
 H         2.346278        -1.934213         2.931655
 H         1.196682        -0.042464        -1.548186
 H        -0.281307        -0.742949        -0.587535
 H         0.007420         1.015820        -0.607094
 H         3.261563        -1.530302         0.265889
