19
Iteration:  2306charge 0 multiplicity 1
 C         2.219170         2.418441         1.098367
 C         2.279559         1.007357         1.340939
 C         2.317339         0.297619         2.869104
 C         2.074533        -1.066707         2.398512
 O         0.674772        -0.903369         1.834590
 C         1.210232        -0.182641         0.739174
 C         0.288534         0.048376        -0.531785
 C         2.497350        -0.965658         0.879987
 O         3.301557         0.338064         0.590966
 H         1.565243         2.767717         0.319192
 H         2.100092         3.057360         1.990572
 H         3.336999         2.593838         0.825349
 H         3.332304         0.364528         3.378064
 H         1.547877         0.749769         3.391798
 H         2.194685        -1.927283         3.082784
 H         0.829052        -0.479003        -1.267312
 H        -0.653031        -0.470330        -0.324919
 H         0.175861         1.034681        -0.802173
 H         2.879578        -1.885378         0.401280
