19
Iteration:  2607
 C         2.031177         2.462186         1.273195
 C         2.164886         0.979718         1.435353
 C         2.138682         0.343189         2.810978
 C         2.072509        -1.045461         2.285941
 O         0.758298        -1.114363         1.572425
 C         1.310469        -0.168924         0.605628
 C         0.407789        -0.080749        -0.564539
 C         2.603173        -0.758201         0.843015
 O         3.401986         0.396815         0.918058
 H         1.067505         2.831464         0.850169
 H         2.062411         3.093773         2.154587
 H         2.933668         2.886817         0.745870
 H         2.993110         0.572322         3.444095
 H         1.249415         0.489104         3.402868
 H         2.348563        -1.928900         2.901911
 H        -0.516922        -0.630174        -0.415043
 H         0.216963         0.966160        -0.812754
 H         0.890365        -0.535725        -1.362166
 H         3.026698        -1.607330         0.302417
