19
Iteration:  1520
 C         2.589458         2.221635         0.866454
 C         2.324011         0.808459         1.214612
 C         2.681556         0.445246         2.663991
 C         2.083688        -0.946849         2.447038
 O         0.607626        -0.495175         2.183483
 C         1.111309        -0.009417         0.863627
 C         0.053134         0.163803        -0.225404
 C         2.242143        -1.062145         0.792118
 O         3.212588        -0.109189         0.377485
 H         1.865806         2.990379         1.200564
 H         3.536052         2.590655         1.223808
 H         2.480620         2.197190        -0.173796
 H         3.741638         0.474818         2.752359
 H         2.146128         0.715680         3.590367
 H         2.127597        -1.783746         3.096427
 H        -0.844925        -0.296679         0.264354
 H        -0.026691         1.261512        -0.292189
 H         0.193089        -0.485794        -1.047630
 H         2.201085        -2.000115         0.278858
