19
Iteration:   812
 C         2.582406         2.233210         0.706192
 C         2.371613         0.849463         1.159962
 C         2.650189         0.392569         2.582595
 C         1.982592        -0.950828         2.399813
 O         0.609986        -0.573193         2.094234
 C         1.160166        -0.083865         0.825462
 C        -0.035777         0.343607         0.015071
 C         2.302480        -1.096723         0.860681
 O         3.269115        -0.153130         0.527376
 H         1.720943         2.733216         1.054535
 H         3.407822         2.883387         1.008921
 H         2.614622         2.375275        -0.366457
 H         3.708477         0.263680         2.624830
 H         2.276574         1.063464         3.306773
 H         2.057198        -1.613502         3.299715
 H        -0.980993        -0.166171         0.428584
 H        -0.156686         1.373195        -0.026234
 H         0.119664         0.095250        -1.046192
 H         2.571570        -2.202809         0.511856
