19
Iteration:  1135
 C         2.530282         2.173073         0.601221
 C         2.367703         0.832521         1.236967
 C         2.655850         0.385552         2.689282
 C         2.006767        -1.033079         2.381184
 O         0.651554        -0.550355         2.152521
 C         1.118534         0.033532         0.957461
 C         0.056331         0.355877        -0.034827
 C         2.261323        -1.083252         0.811252
 O         3.274980        -0.131744         0.446841
 H         1.550629         2.676623         0.644225
 H         3.366834         2.890634         1.137275
 H         2.899993         2.128363        -0.481899
 H         3.809808         0.378913         3.048610
 H         2.040522         0.884630         3.375609
 H         2.005224        -1.920576         2.908601
 H        -0.263687        -0.622947        -0.468026
 H        -0.886805         0.720494         0.437480
 H         0.099387         1.178359        -0.860696
 H         2.165493        -1.934913         0.302944
