19
Iteration:  4327
 C         1.505991         2.392467         1.385208
 C         1.873282         0.973902         1.654555
 C         1.694593         0.109717         2.910618
 C         2.133800        -1.163253         2.192864
 O         0.959670        -1.429665         1.209020
 C         1.513408        -0.235257         0.478372
 C         0.998292         0.097033        -0.903560
 C         2.950028        -0.562219         0.952814
 O         3.255318         0.804172         1.343776
 H         0.483409         2.609474         1.468071
 H         1.928851         3.025782         2.129053
 H         1.813092         2.664770         0.350997
 H         2.450792         0.212958         3.720964
 H         0.699918         0.013485         3.331000
 H         2.512662        -2.207442         2.462607
 H         1.196992         1.223933        -1.020269
 H         1.318191        -0.521212        -1.775562
 H        -0.063940         0.147634        -0.679848
 H         3.769990        -1.070683         0.458683
