19
Iteration:  3185charge 0 multiplicity 1
 C         1.394478         2.370972         1.417587
 C         1.953056         0.933900         1.575926
 C         1.825661         0.186703         2.802833
 C         2.127693        -1.140908         2.174965
 O         0.885917        -1.300525         1.320927
 C         1.488332        -0.298216         0.540253
 C         1.035117         0.128247        -0.757053
 C         2.920417        -0.660955         0.921711
 O         3.282086         0.738811         1.191152
 H         0.309596         2.212775         1.463415
 H         1.758322         3.096925         2.192554
 H         1.648190         2.930279         0.488439
 H         2.552035         0.635424         3.487410
 H         0.872833         0.002282         3.392041
 H         2.401929        -1.911475         2.921123
 H         1.921800         0.461051        -1.374345
 H         0.588935        -0.776494        -1.216494
 H         0.288666         0.895745        -0.689608
 H         3.615480        -1.356187         0.363714
