19
Iteration:  4198
 C         1.551763         2.492807         1.602333
 C         1.866948         1.031037         1.557913
 C         1.652228         0.152937         2.840375
 C         2.046527        -1.185422         2.138013
 O         0.955031        -1.337752         1.216588
 C         1.566769        -0.221196         0.449410
 C         1.041200        -0.061606        -0.950665
 C         2.878360        -0.590488         0.982771
 O         3.278843         0.724472         1.320124
 H         0.769977         2.960064         2.252616
 H         2.558572         2.821379         1.917219
 H         1.584694         2.894953         0.521538
 H         2.533976         0.351592         3.559579
 H         0.680294         0.158898         3.276586
 H         2.293388        -1.953382         2.935231
 H         0.198480        -0.751031        -1.115704
 H         0.604936         0.937060        -1.026580
 H         1.799734        -0.202843        -1.676599
 H         3.567812        -1.379548         0.661519
