19
Iteration:  4388
 C         1.339779         2.379337         1.828288
 C         1.874335         1.050039         1.595325
 C         1.743345         0.195702         2.868325
 C         2.063602        -1.160427         2.175208
 O         0.929576        -1.229475         1.225896
 C         1.539039        -0.208513         0.481362
 C         1.055022        -0.205657        -1.092142
 C         3.008388        -0.564216         0.931494
 O         3.348683         0.764899         1.200379
 H         0.280452         2.122421         2.105783
 H         2.075331         2.966556         2.476154
 H         1.363973         2.899906         0.841525
 H         2.543291         0.364062         3.599549
 H         0.670158         0.214790         3.328420
 H         2.277110        -2.038260         2.787709
 H         1.836324        -0.238493        -1.840465
 H         0.201615        -0.820233        -1.393741
 H         0.597879         0.752369        -1.369016
 H         3.806273        -1.175793         0.524030
