19
Iteration:  3577charge 0 multiplicity 1
 C         1.532781         2.550754         1.722741
 C         1.868096         0.976536         1.515981
 C         1.543679         0.124965         2.797072
 C         2.047927        -1.176409         2.144499
 O         0.993642        -1.327387         1.170248
 C         1.610721        -0.234184         0.373933
 C         1.012969        -0.173423        -0.917652
 C         3.032581        -0.554029         0.994855
 O         3.278988         0.775331         1.375104
 H         0.466842         2.663300         2.130780
 H         2.170500         3.200921         2.415074
 H         1.466654         2.961987         0.703222
 H         2.118126         0.463321         3.608639
 H         0.379569         0.093344         2.921485
 H         2.259606        -2.103839         2.633124
 H         1.022339        -1.094821        -1.457148
 H         0.021563         0.332453        -0.864144
 H         1.665517         0.505615        -1.516366
 H         3.870210        -0.919360         0.459148
