19
Iteration:   856charge 0 multiplicity 1
 C         2.556303         2.225362         0.676422
 C         2.400412         0.845885         1.184601
 C         2.673787         0.354535         2.615202
 C         2.053344        -0.967774         2.431291
 O         0.630585        -0.543674         2.197103
 C         1.090209        -0.028000         0.978149
 C         0.089345         0.330193        -0.115941
 C         2.244473        -1.108446         0.850119
 O         3.140872        -0.112559         0.423628
 H         1.683913         2.731070         0.428239
 H         3.161455         2.908466         1.242687
 H         3.202099         2.074000        -0.157811
 H         3.690340         0.355588         2.894048
 H         2.047224         0.845006         3.370720
 H         2.248623        -1.799360         3.061070
 H        -0.735780        -0.408422         0.090289
 H        -0.231386         1.334819        -0.055434
 H         0.600259         0.098688        -1.029856
 H         2.258591        -2.022258         0.131428
