19
Iteration:  1752charge 0 multiplicity 1
 C         2.509855         2.325902         0.679894
 C         2.454004         0.889690         1.239430
 C         2.614211         0.379287         2.709772
 C         2.043803        -1.027152         2.469306
 O         0.613679        -0.724202         2.158190
 C         1.109064        -0.052139         0.848766
 C         0.053900         0.279375        -0.242596
 C         2.269395        -1.049390         0.903937
 O         3.266476        -0.034268         0.452842
 H         3.008549         3.031549         1.398019
 H         3.049418         2.427886        -0.283138
 H         1.411725         2.721367         0.659927
 H         3.615564         0.346148         3.122842
 H         1.950385         0.826990         3.530196
 H         2.187640        -1.915561         3.219416
 H         0.270870         1.291193        -0.761251
 H         0.067936        -0.496434        -1.074407
 H        -0.998015         0.395672         0.227701
 H         2.275045        -2.006316         0.225096
