19
Iteration:   550charge 0 multiplicity 1
 C         2.541334         2.315150         0.705242
 C         2.445137         0.831422         1.233180
 C         2.684573         0.362514         2.664653
 C         2.039563        -0.946804         2.402789
 O         0.648547        -0.582928         2.228308
 C         1.082457         0.039086         0.964091
 C         0.134789         0.276958        -0.242843
 C         2.154142        -1.069780         0.853709
 O         3.172740        -0.175508         0.421549
 H         2.027298         2.777180         1.468200
 H         3.593190         2.722922         0.684224
 H         2.042219         2.287427        -0.269684
 H         3.722016         0.334667         2.943636
 H         2.014323         0.785133         3.416888
 H         2.119754        -1.828746         3.177031
 H        -0.553579        -0.643789        -0.196880
 H        -0.421208         1.153718        -0.216825
 H         0.758722         0.352483        -1.227679
 H         2.139985        -2.069461         0.199126
