19
Iteration:  1614charge 0 multiplicity 1
 C         2.493046         2.333711         0.770221
 C         2.384364         0.894296         1.144230
 C         2.693784         0.390033         2.637753
 C         1.988721        -0.964314         2.390906
 O         0.599907        -0.598821         2.105788
 C         1.141035        -0.038228         0.878927
 C         0.012445         0.303888        -0.083869
 C         2.257237        -1.090399         0.891968
 O         3.326631        -0.221127         0.462778
 H         1.492160         2.783782         0.551085
 H         3.016901         3.007483         1.539122
 H         3.014939         2.391553        -0.233449
 H         3.887298         0.314577         2.695175
 H         2.267815         1.018379         3.386856
 H         2.070776        -1.867613         3.110626
 H        -0.956481         0.291156         0.524499
 H         0.112032         1.296881        -0.477644
 H        -0.126972        -0.553101        -0.835162
 H         2.320565        -2.078738         0.419656
