19
Iteration:   391
 C         2.532799         2.200730         0.841388
 C         2.423343         0.798133         1.197273
 C         2.620378         0.473114         2.677306
 C         2.054353        -0.912454         2.415515
 O         0.675817        -0.509695         2.203544
 C         1.104886        -0.081329         0.913073
 C         0.129396         0.323742        -0.160398
 C         2.225438        -1.126370         0.810608
 O         3.177889        -0.233601         0.294799
 H         1.566257         2.837065         1.392355
 H         3.328929         2.967798         1.202104
 H         2.437683         2.280870        -0.329460
 H         3.649647         0.571156         3.103884
 H         1.867726         1.066071         3.392330
 H         2.032363        -1.785629         3.139234
 H        -0.847958        -0.229287        -0.077597
 H        -0.007932         1.501956        -0.158854
 H         0.619763         0.116918        -1.083226
 H         2.179206        -2.111099         0.444532
