19
Iteration:  4244
 C         1.505745         2.435236         1.596545
 C         1.827195         0.961634         1.529352
 C         1.768523         0.123515         2.904363
 C         2.011759        -1.167845         2.185416
 O         0.860810        -1.284834         1.270705
 C         1.538609        -0.186987         0.504569
 C         1.178336        -0.043328        -0.911575
 C         2.908049        -0.613398         0.929451
 O         3.281359         0.769498         1.206377
 H         0.326705         2.454413         1.569237
 H         1.804962         3.053336         2.499156
 H         1.886328         3.013979         0.725467
 H         2.640453         0.419647         3.610079
 H         0.735029         0.018851         3.307213
 H         2.231651        -2.143709         2.553515
 H         0.098839         0.004608        -0.894111
 H         1.500669         0.900696        -1.328330
 H         1.607233        -0.941751        -1.428708
 H         3.613877        -1.195880         0.232639
