19
Iteration:  1790
 C         2.544586         2.239844         0.867002
 C         2.305818         0.886494         1.164049
 C         2.584383         0.438557         2.662856
 C         2.032736        -0.974121         2.428811
 O         0.620427        -0.684230         2.127728
 C         1.094758        -0.110798         0.860228
 C         0.087093         0.187602        -0.259839
 C         2.332139        -1.051503         0.871354
 O         3.257967         0.017879         0.471625
 H         3.620890         2.358878         1.037179
 H         2.476562         2.444934        -0.202762
 H         1.903259         2.891140         1.373803
 H         3.699409         0.560854         2.797400
 H         2.103774         1.050557         3.425558
 H         2.164381        -1.619068         3.249778
 H         0.483773         0.749493        -1.110149
 H        -0.442037        -0.729052        -0.471575
 H        -0.611988         0.967119         0.133967
 H         2.335591        -1.971519         0.383980
