19
Iteration:  1007charge 0 multiplicity 1
 C         2.600468         2.275056         0.788646
 C         2.394601         0.852195         1.190019
 C         2.624300         0.444074         2.657987
 C         2.055792        -0.949270         2.433207
 O         0.612040        -0.625025         2.210423
 C         1.066298        -0.127129         0.907885
 C         0.101647         0.361793        -0.153473
 C         2.267543        -1.120971         0.827529
 O         3.172873        -0.154201         0.363598
 H         2.567934         3.127587         1.414234
 H         3.619990         2.346420         0.319295
 H         1.842939         2.485466         0.057173
 H         3.708371         0.502172         3.016989
 H         1.999246         1.047995         3.344588
 H         2.157251        -1.581133         3.215948
 H        -0.818912        -0.295849        -0.220882
 H        -0.168321         1.403218        -0.059110
 H         0.586421         0.143471        -1.087769
 H         2.183745        -2.110322         0.335556
