19
Iteration:  1560charge 0 multiplicity 1
 C         2.590201         2.355755         0.699921
 C         2.370038         0.962735         1.217686
 C         2.685481         0.365876         2.671360
 C         2.020551        -0.960095         2.440024
 O         0.515912        -0.741065         2.174093
 C         1.150240        -0.026995         0.942813
 C         0.090076         0.262608        -0.130928
 C         2.219572        -1.074784         0.868177
 O         3.256765        -0.135856         0.369755
 H         1.624063         2.934384         0.485094
 H         3.177650         3.044252         1.462549
 H         3.055321         2.193190        -0.340896
 H         3.883209         0.271576         2.807150
 H         2.337282         1.020188         3.423566
 H         2.273979        -1.641091         3.354059
 H        -0.969886         0.048926         0.259587
 H         0.231280         1.282590        -0.463126
 H         0.055006        -0.357506        -1.127008
 H         2.020157        -1.956441         0.271763
