19
Iteration:  3925charge 0 multiplicity 1
 C         1.484437         2.494135         1.682114
 C         1.918309         0.975500         1.562922
 C         1.701432         0.131081         2.862416
 C         1.977321        -1.183949         2.055442
 O         0.848711        -1.274948         1.255343
 C         1.518604        -0.163144         0.521961
 C         1.153885        -0.186154        -0.972231
 C         2.899010        -0.527072         0.914280
 O         3.362603         0.742517         1.291141
 H         0.631728         2.613424         2.332855
 H         2.280808         3.120108         2.099380
 H         1.259585         2.946345         0.671269
 H         2.460199         0.575927         3.496772
 H         0.772108        -0.026957         3.414829
 H         2.329908        -2.108996         2.626232
 H         1.495745        -1.128118        -1.450506
 H         0.019637        -0.029158        -1.055508
 H         1.468103         0.664914        -1.551257
 H         3.645830        -1.148120         0.485718
