19
Iteration:  1559charge 0 multiplicity 1
 C         2.593593         2.371984         0.700662
 C         2.372629         0.970398         1.208898
 C         2.685579         0.360898         2.670069
 C         2.011919        -0.964745         2.444071
 O         0.517172        -0.740863         2.184939
 C         1.141544        -0.029937         0.947158
 C         0.091183         0.252267        -0.134136
 C         2.219841        -1.072698         0.864674
 O         3.259015        -0.135343         0.371131
 H         1.628077         2.910248         0.496422
 H         3.204505         3.055841         1.428744
 H         3.061489         2.191857        -0.353891
 H         3.882588         0.260045         2.800662
 H         2.343814         1.013419         3.469893
 H         2.267783        -1.671839         3.352655
 H        -0.965310         0.078287         0.252954
 H         0.211000         1.272958        -0.485156
 H         0.074691        -0.335037        -1.157618
 H         2.041359        -1.983582         0.225293
