19
Iteration:  2643
 C         1.991333         2.461035         1.265527
 C         2.082145         0.977514         1.426508
 C         2.185347         0.203445         2.879519
 C         2.049068        -1.106417         2.281267
 O         0.708455        -1.048985         1.645133
 C         1.277124        -0.174341         0.660844
 C         0.543640        -0.079280        -0.625112
 C         2.708944        -0.752681         0.841117
 O         3.330788         0.508256         0.847494
 H         0.987509         2.823454         1.392498
 H         2.669506         2.927786         2.003955
 H         2.215484         2.591992         0.201319
 H         3.146988         0.559795         3.309751
 H         1.346399         0.452619         3.494002
 H         2.195431        -1.994318         2.915643
 H        -0.405670         0.506022        -0.467856
 H         1.189330         0.516163        -1.301600
 H         0.411972        -0.998529        -1.166514
 H         3.138303        -1.641369         0.318918
