19
Iteration:   371charge 0 multiplicity 1
 C         2.506719         2.262193         0.801473
 C         2.411325         0.780367         1.070055
 C         2.691044         0.410450         2.542985
 C         1.994184        -0.932307         2.485564
 O         0.580815        -0.545914         2.152352
 C         1.112478        -0.118214         0.853761
 C         0.040488         0.378928        -0.118941
 C         2.286076        -1.161865         0.876321
 O         3.297164        -0.171108         0.481529
 H         1.822664         2.872812         1.529456
 H         3.522376         2.637204         1.011472
 H         2.330122         2.677433        -0.231144
 H         3.753467         0.345648         2.812479
 H         2.225400         1.187694         3.266756
 H         2.116352        -1.689627         3.256619
 H        -0.872212        -0.238917         0.024776
 H        -0.375406         1.471618         0.111071
 H         0.143515         0.375591        -1.176407
 H         2.349405        -2.173225         0.455937
