19
Iteration:  4792charge 0 multiplicity 1
 C         1.321614         2.318519         1.509014
 C         1.790260         0.896791         1.595460
 C         1.655676         0.048105         2.910781
 C         2.228492        -1.093112         2.089903
 O         1.245631        -1.511958         1.194824
 C         1.494158        -0.219957         0.485444
 C         0.898479         0.135025        -0.810509
 C         2.981637        -0.461848         0.937604
 O         3.243476         0.888529         1.291769
 H         0.491415         2.420916         2.176207
 H         2.324708         2.844036         1.704490
 H         0.911969         2.516657         0.473338
 H         2.458036         0.173443         3.716281
 H         0.649182        -0.138501         3.273535
 H         2.567519        -1.942973         2.789527
 H        -0.144617        -0.334605        -1.015629
 H         0.844275         1.238596        -0.704338
 H         1.528797         0.033114        -1.742564
 H         3.691335        -0.877402         0.267719
