19
Iteration:  1896charge 0 multiplicity 1
 C         2.435706         2.345270         0.849745
 C         2.363570         0.976054         1.210332
 C         2.496490         0.406774         2.687976
 C         1.979972        -0.983880         2.455898
 O         0.619669        -0.807851         2.031088
 C         1.158438        -0.083188         0.855013
 C         0.203233         0.255418        -0.186945
 C         2.385155        -1.066068         0.877787
 O         3.262917        -0.024240         0.452779
 H         2.539416         2.377862        -0.233789
 H         1.402439         2.690511         1.081537
 H         3.330807         2.868271         1.236291
 H         3.545004         0.482653         3.098007
 H         1.886791         0.970143         3.294493
 H         2.232423        -1.798802         3.146793
 H        -0.643345        -0.375629        -0.109724
 H        -0.155580         1.228654        -0.264541
 H         0.679800         0.159414        -1.156683
 H         2.360149        -2.060886         0.506806
