19
Iteration:  2658charge 0 multiplicity 1
 C         1.902569         2.375563         1.297663
 C         2.071951         0.925758         1.490522
 C         2.148098         0.432351         2.849918
 C         2.093227        -1.084488         2.246862
 O         0.722365        -1.068928         1.651287
 C         1.317256        -0.211634         0.653979
 C         0.635853         0.023245        -0.651969
 C         2.659038        -0.845616         0.812866
 O         3.338000         0.441600         0.853044
 H         0.978223         2.671194         1.891797
 H         2.811161         2.879324         1.698256
 H         1.804858         2.789943         0.301465
 H         3.145494         0.558659         3.243760
 H         1.375613         0.539758         3.699510
 H         2.315578        -1.981735         2.807971
 H        -0.101835         0.835414        -0.641771
 H         1.372431         0.253606        -1.454097
 H        -0.086340        -0.918698        -0.756145
 H         3.059288        -1.532866         0.079016
