19
Iteration:  2866charge 0 multiplicity 1
 C         1.674695         2.445889         1.324854
 C         2.009122         0.936977         1.492618
 C         2.038070         0.296467         2.808934
 C         2.100380        -1.136954         2.281341
 O         0.703191        -1.235587         1.524983
 C         1.451309        -0.220631         0.556708
 C         0.743239         0.124170        -0.681270
 C         2.769168        -0.796626         0.939300
 O         3.411998         0.549344         0.976337
 H         0.978182         2.486249         0.425782
 H         1.296884         2.907843         2.245284
 H         2.505197         3.115690         0.920835
 H         3.032815         0.574034         3.326850
 H         1.188170         0.487037         3.479802
 H         2.342210        -2.004044         2.893698
 H        -0.336653         0.329864        -0.371080
 H         1.227473         0.961439        -1.204518
 H         0.788975        -0.692689        -1.437613
 H         3.281559        -1.542149         0.368711
