19
Iteration:  1239
 C         2.599483         2.260833         0.762818
 C         2.414043         0.887160         1.304294
 C         2.753260         0.390343         2.652290
 C         1.965790        -1.001755         2.422132
 O         0.617116        -0.593565         2.194147
 C         1.079121        -0.021523         0.860683
 C         0.118314         0.147098        -0.217823
 C         2.145776        -1.002113         0.830517
 O         3.172731        -0.047530         0.425321
 H         2.534444         3.090527         1.540724
 H         3.674910         2.239984         0.506821
 H         1.912995         2.449615        -0.119010
 H         3.751028         0.297619         2.601716
 H         2.374794         0.975053         3.564333
 H         2.132025        -1.770306         3.292095
 H        -0.736363        -0.465862         0.054362
 H        -0.248862         1.199166        -0.320753
 H         0.408144        -0.263026        -1.177593
 H         2.212658        -1.974262         0.111503
