19
Iteration:  4521charge 0 multiplicity 1
 C         1.376278         2.399949         1.622333
 C         1.848527         1.029546         1.568148
 C         1.726128         0.068363         2.837046
 C         2.139158        -1.141058         2.062877
 O         0.971773        -1.347337         1.206133
 C         1.547583        -0.214028         0.511803
 C         0.992932        -0.114223        -0.915004
 C         2.987102        -0.520876         0.907086
 O         3.321457         0.832950         1.374646
 H         0.304172         2.438560         1.680926
 H         1.786277         2.977673         2.499673
 H         1.775479         2.965800         0.713224
 H         2.384228         0.467113         3.614941
 H         0.760372         0.019795         3.345176
 H         2.409700        -2.149303         2.438659
 H        -0.108733        -0.029923        -0.798413
 H         1.293763         0.783018        -1.403883
 H         1.232693        -1.018317        -1.366913
 H         3.645953        -0.871531         0.190677
