19
Iteration:  3612
 C         1.332448         2.350492         1.538021
 C         1.900817         0.966576         1.614830
 C         1.749269         0.107573         2.890852
 C         1.964075        -1.155114         2.176872
 O         0.938534        -1.276241         1.177025
 C         1.576123        -0.165050         0.519201
 C         1.115723        -0.032792        -0.971861
 C         3.023452        -0.542930         0.961961
 O         3.303731         0.739467         1.344695
 H         0.237916         2.209410         1.460426
 H         1.639784         3.001575         2.357660
 H         1.742713         2.845150         0.604680
 H         2.563244         0.526883         3.499147
 H         0.849899         0.222086         3.497245
 H         2.111450        -2.214674         2.508689
 H         0.731139        -0.929155        -1.484065
 H         0.262804         0.675325        -1.113550
 H         1.906512         0.484884        -1.485249
 H         3.720745        -1.134462         0.390863
