19
Iteration:  3804
 C         1.237064         2.312025         1.361546
 C         1.935124         0.993354         1.632628
 C         1.784177         0.098839         2.878287
 C         2.049428        -1.138832         2.121075
 O         0.851784        -1.312925         1.256900
 C         1.549168        -0.146688         0.505704
 C         1.159320         0.201410        -0.819246
 C         2.947374        -0.685208         0.977613
 O         3.385582         0.673599         1.289863
 H         0.164617         2.171485         1.473656
 H         1.687382         3.067202         2.032666
 H         1.520225         2.748841         0.440795
 H         2.587278         0.359813         3.527352
 H         0.832379         0.211283         3.523272
 H         2.218322        -2.110876         2.576287
 H         1.141614        -0.713653        -1.405971
 H         0.134538         0.753507        -0.803372
 H         1.907561         0.980520        -1.192157
 H         3.653044        -1.418073         0.526945
