19
Iteration:   206
 C         2.597289         2.205975         0.696073
 C         2.383956         0.824628         1.191347
 C         2.730529         0.401807         2.627228
 C         1.985279        -0.922250         2.513070
 O         0.632090        -0.697705         2.172861
 C         1.057967        -0.129718         0.906061
 C         0.123070         0.370829        -0.106172
 C         2.236796        -1.063366         0.857342
 O         3.106381        -0.049107         0.384107
 H         1.882919         2.966032         1.082716
 H         3.572277         2.620144         0.977227
 H         2.593491         2.060391        -0.411620
 H         3.873224         0.304121         2.725313
 H         2.512844         1.061252         3.518735
 H         2.021920        -1.759336         3.235074
 H        -0.961611         0.025337        -0.032163
 H         0.050384         1.630612        -0.156347
 H         0.490823         0.229091        -1.120973
 H         2.329081        -2.013036         0.393738
