19
Iteration:  4022charge 0 multiplicity 1
 C         1.553328         2.424685         1.426512
 C         1.867505         1.007158         1.536579
 C         1.672223         0.096617         2.864873
 C         2.114140        -1.156675         2.142645
 O         0.923697        -1.412890         1.216579
 C         1.456014        -0.197061         0.578215
 C         0.966319         0.067541        -0.838202
 C         2.919888        -0.599895         0.968685
 O         3.412055         0.761637         1.325817
 H         0.597518         2.593176         0.943893
 H         1.538674         3.024570         2.351103
 H         2.318784         2.807159         0.677035
 H         2.249886         0.404666         3.719803
 H         0.631106        -0.067037         3.219094
 H         2.063193        -2.138660         2.682117
 H         0.618536        -0.818837        -1.287544
 H         0.164648         0.815788        -0.857369
 H         1.690171         0.548451        -1.419120
 H         3.750147        -1.018932         0.481224
