19
Iteration:   719
 C         2.508442         2.294195         0.781084
 C         2.468292         0.824222         1.194031
 C         2.774145         0.346095         2.611505
 C         1.929556        -0.924716         2.489842
 O         0.610590        -0.429262         2.156509
 C         1.137119        -0.052199         0.841546
 C         0.076227         0.159964        -0.174507
 C         2.209577        -1.161811         0.859205
 O         3.221587        -0.119649         0.437428
 H         2.551838         2.789324         1.822218
 H         3.410630         2.502063         0.231336
 H         1.698546         2.665692         0.146515
 H         3.928290         0.284276         2.804825
 H         2.242280         1.083342         3.360333
 H         1.962053        -1.769565         3.078547
 H        -0.282928        -0.638447        -0.776265
 H        -0.950743         0.547211         0.285901
 H         0.246051         1.028854        -0.836523
 H         2.209271        -2.100599         0.487997
