19
Iteration:  1630
 C         2.570987         2.271214         0.752755
 C         2.517170         0.859012         1.247344
 C         2.745267         0.443120         2.625673
 C         1.967815        -0.935261         2.448230
 O         0.607757        -0.622623         2.080856
 C         1.125226        -0.090170         0.904643
 C         0.065124         0.235129        -0.106772
 C         2.194513        -1.088656         0.783079
 O         3.163162        -0.076484         0.470396
 H         1.484432         2.642510         0.875626
 H         3.087551         2.864818         1.512289
 H         2.851070         2.340439        -0.288705
 H         3.741198         0.286931         2.862239
 H         2.353352         1.041558         3.520057
 H         2.116761        -1.624596         3.198803
 H        -0.927385         0.280882         0.359599
 H         0.293911         1.098146        -0.817776
 H        -0.187978        -0.593513        -0.785502
 H         2.188769        -2.047066         0.223260
