19
Iteration:  4126charge 0 multiplicity 1
 C         1.498209         2.378173         1.284120
 C         1.877948         0.932721         1.601891
 C         1.790203         0.123667         2.887170
 C         1.959547        -1.198738         2.206374
 O         0.874837        -1.340279         1.284252
 C         1.534347        -0.298613         0.547513
 C         1.099240         0.246406        -0.840320
 C         2.919482        -0.651150         0.982278
 O         3.299078         0.744325         1.305471
 H         0.441695         2.438134         1.597245
 H         2.119022         3.007709         1.935061
 H         1.638255         2.649802         0.283127
 H         2.675295         0.364104         3.466047
 H         0.806939         0.257903         3.361558
 H         2.313431        -2.030688         2.744365
 H         1.447127        -0.397100        -1.688826
 H         0.014272         0.258915        -0.985223
 H         1.616195         1.239279        -1.077563
 H         3.575526        -1.205859         0.245726
