19
Iteration:  3503
 C         1.294194         2.272315         1.367500
 C         1.926813         0.937304         1.620994
 C         1.706007         0.124573         2.909570
 C         2.035049        -1.212903         2.146084
 O         0.850046        -1.236554         1.240599
 C         1.623822        -0.152144         0.499810
 C         1.178037         0.175804        -0.919455
 C         2.972856        -0.634115         0.982240
 O         3.354163         0.737576         1.383774
 H         0.294929         2.071593         1.796598
 H         1.742401         3.106130         1.861456
 H         1.187709         2.521310         0.309848
 H         2.471750         0.522115         3.535653
 H         0.727458         0.016227         3.424146
 H         2.283011        -2.237528         2.473292
 H         1.862499        -0.339717        -1.605560
 H         0.129748        -0.208522        -1.003069
 H         1.097266         1.183379        -1.338532
 H         3.681314        -1.334350         0.619836
