19
Iteration:  1955charge 0 multiplicity 1
 C         2.440276         2.425298         0.870644
 C         2.384591         0.907910         1.288648
 C         2.544015         0.441422         2.760953
 C         1.978622        -1.002390         2.361457
 O         0.552174        -0.734319         1.995272
 C         1.164095        -0.103862         0.803479
 C         0.151342         0.084465        -0.213503
 C         2.385510        -1.032840         0.761163
 O         3.332599         0.027112         0.542723
 H         1.578339         2.606994         0.189333
 H         2.472095         3.080136         1.742743
 H         3.362191         2.705479         0.387164
 H         3.482099         0.340763         3.225260
 H         1.745643         0.813077         3.510764
 H         2.087081        -1.820470         3.093360
 H        -0.725254         0.670847         0.193021
 H         0.644876         0.687478        -1.033283
 H        -0.208434        -0.935362        -0.442827
 H         2.396062        -2.035501         0.268253
