19
Iteration:  2349
 C         2.076467         2.500400         1.090329
 C         2.207035         0.925738         1.310408
 C         2.381805         0.318398         2.747746
 C         2.019571        -1.056677         2.326463
 O         0.646006        -0.944645         1.814956
 C         1.243482        -0.158292         0.781038
 C         0.397419         0.084839        -0.472153
 C         2.545461        -0.935851         0.887993
 O         3.370562         0.240542         0.723995
 H         1.086202         2.858249         1.357818
 H         2.765013         3.076547         1.733734
 H         2.263596         2.836180         0.004535
 H         3.443185         0.447571         3.139120
 H         1.604793         0.553174         3.445468
 H         2.203020        -1.904456         3.007867
 H         0.032683        -0.845295        -0.891939
 H        -0.429992         0.821485        -0.297334
 H         1.093160         0.528414        -1.115778
 H         2.792684        -1.813802         0.270591
