19
Iteration:  2561
 C         1.971437         2.473497         1.133439
 C         2.166143         0.988314         1.376981
 C         2.166426         0.337867         2.871114
 C         2.045892        -1.087358         2.256793
 O         0.727071        -1.080727         1.627857
 C         1.279444        -0.273749         0.676248
 C         0.479695         0.084452        -0.467823
 C         2.715576        -0.896178         0.854512
 O         3.368142         0.410329         0.847167
 H         1.562415         2.847925         0.121007
 H         1.174644         2.854945         1.841546
 H         2.842903         2.991827         1.530126
 H         3.113526         0.423933         3.353658
 H         1.337254         0.719383         3.580184
 H         2.246318        -1.949885         2.881297
 H         0.315414        -0.696568        -1.167267
 H        -0.452775         0.433166        -0.071822
 H         1.064515         0.827196        -1.084310
 H         2.957363        -1.812679         0.333594
