19
Iteration:  2748charge 0 multiplicity 1
 C         1.899864         2.508047         1.248205
 C         2.083131         1.057681         1.496451
 C         2.098253         0.259997         2.857619
 C         2.046851        -1.140520         2.224530
 O         0.754873        -1.178934         1.533249
 C         1.331854        -0.200544         0.648324
 C         0.558531        -0.001577        -0.623045
 C         2.789239        -0.770484         0.842425
 O         3.361798         0.479911         0.978063
 H         2.794527         2.961383         1.625502
 H         1.798581         2.676125         0.195121
 H         0.977166         2.962609         1.639709
 H         2.782662         0.547449         3.685559
 H         1.125047         0.212480         3.281189
 H         2.269665        -1.888709         3.022444
 H         1.182700        -0.121451        -1.576403
 H        -0.260387        -0.735119        -0.604039
 H         0.069723         0.973964        -0.676096
 H         3.282534        -1.516981         0.229522
