19
Iteration:  1575
 C         2.539343         2.222510         0.741722
 C         2.398309         0.823088         1.201859
 C         2.679100         0.487447         2.632042
 C         2.034948        -0.948713         2.435949
 O         0.639249        -0.652775         2.084212
 C         1.090934        -0.074529         0.897778
 C         0.091179         0.333539        -0.076236
 C         2.244473        -1.071968         0.871874
 O         3.184087        -0.124451         0.424164
 H         1.544176         2.648262         0.523713
 H         3.085342         2.798568         1.461293
 H         3.210219         2.270578        -0.064667
 H         3.685007         0.476394         2.856025
 H         2.076391         0.988344         3.422632
 H         2.128600        -1.818690         2.991386
 H        -0.832220         0.277415         0.484614
 H         0.030944         1.358709        -0.514941
 H         0.214683        -0.298188        -0.910896
 H         2.311256        -2.088649         0.495074
