19
Iteration:  2051
 C         2.246244         2.369264         0.911605
 C         2.302478         0.937890         1.303678
 C         2.505315         0.334407         2.688167
 C         1.961666        -1.011146         2.340649
 O         0.689254        -0.675261         1.941222
 C         1.166892        -0.145830         0.799170
 C         0.178806         0.198913        -0.200177
 C         2.491213        -1.085896         0.807279
 O         3.365117         0.036335         0.607638
 H         1.108468         2.606957         0.725370
 H         2.439241         3.140114         1.766728
 H         2.914566         2.489137         0.056256
 H         3.599441         0.466634         2.870512
 H         1.901422         0.854780         3.529189
 H         2.067218        -1.835805         3.067132
 H         0.739574         0.138294        -1.151369
 H        -0.526776        -0.608904        -0.230178
 H        -0.386866         1.173241        -0.023111
 H         2.619913        -1.936316         0.141891
