19
Iteration:  1151charge 0 multiplicity 1
 C         2.515424         2.315277         0.605674
 C         2.493923         0.875966         1.175579
 C         2.660879         0.331114         2.673696
 C         1.998342        -1.004817         2.365177
 O         0.632265        -0.535268         2.180615
 C         1.135570        -0.027477         0.849228
 C        -0.026730         0.309476        -0.026845
 C         2.176390        -1.073304         0.782325
 O         3.310181        -0.196748         0.559573
 H         1.592910         2.860845         0.878892
 H         3.311178         2.976858         0.928428
 H         2.738076         2.210111        -0.438433
 H         3.634457         0.362493         2.908521
 H         2.082000         0.817383         3.550935
 H         2.219876        -1.792748         3.201156
 H        -0.366396        -0.485407        -0.704281
 H        -0.799696         0.529873         0.701957
 H         0.410792         1.000891        -0.661246
 H         2.223924        -2.047299         0.037004
