19
Iteration:  1965charge 0 multiplicity 1
 C         2.520160         2.382407         0.912615
 C         2.425220         0.905490         1.309669
 C         2.494499         0.380292         2.767129
 C         1.967619        -0.922310         2.384342
 O         0.591924        -0.769118         2.016930
 C         1.130567        -0.184024         0.848953
 C         0.169218         0.120336        -0.247933
 C         2.367116        -0.961325         0.762282
 O         3.258403         0.043840         0.490958
 H         1.571960         2.717246         0.380803
 H         2.284075         3.051042         1.728552
 H         3.220274         2.626798         0.168835
 H         3.461476         0.363026         3.170471
 H         1.835163         1.055039         3.431154
 H         2.148721        -1.742661         3.073371
 H        -0.611289         0.903334        -0.147048
 H         0.663051         0.137003        -1.215878
 H        -0.263782        -0.890214        -0.458556
 H         2.762631        -1.830598         0.238133
