19
Iteration:  1774charge 0 multiplicity 1
 C         2.574550         2.403846         0.756148
 C         2.293956         0.911514         1.251993
 C         2.599634         0.419397         2.637815
 C         1.977477        -0.932305         2.412267
 O         0.562345        -0.704985         2.096201
 C         1.102862        -0.179944         0.884157
 C         0.201464         0.188406        -0.098655
 C         2.343370        -1.085465         0.827998
 O         3.190581        -0.047331         0.456649
 H         3.506633         2.844733         1.186225
 H         2.776915         2.373194        -0.337622
 H         1.698713         3.154463         1.012704
 H         3.666381         0.378784         2.884423
 H         2.123379         0.996752         3.488994
 H         2.185184        -1.895231         3.017209
 H         0.648814         1.025045        -0.756714
 H        -0.043228        -0.686339        -0.757690
 H        -0.706226         0.705257         0.374139
 H         2.536402        -2.132050         0.322996
