19
Iteration:  3814
 C         1.272554         2.259460         1.285141
 C         1.976329         0.955059         1.627133
 C         1.820579         0.152028         2.929367
 C         2.017848        -1.207243         2.100719
 O         0.859287        -1.233477         1.176461
 C         1.534940        -0.245724         0.599430
 C         1.056138         0.259328        -0.831051
 C         2.994358        -0.633167         1.028639
 O         3.398865         0.691208         1.347656
 H         0.195661         2.036279         1.270623
 H         1.286310         3.033910         2.091573
 H         1.509252         2.556552         0.316036
 H         2.719885         0.256300         3.410887
 H         0.924761         0.094130         3.651823
 H         2.164005        -2.084113         2.703058
 H         1.052191        -0.599665        -1.475303
 H         0.041621         0.764199        -0.955348
 H         1.850513         0.899382        -1.348273
 H         3.640665        -1.313624         0.419496
