19
Iteration:  4803
 C         1.315866         2.374635         1.529407
 C         1.797583         0.994794         1.639222
 C         1.667183         0.003873         2.880070
 C         2.243531        -1.177787         2.106224
 O         1.147363        -1.514863         1.143176
 C         1.595228        -0.225932         0.522976
 C         0.895319         0.061057        -0.822121
 C         2.987693        -0.426832         0.904119
 O         3.267678         0.909124         1.307139
 H         0.581920         2.565385         2.296735
 H         2.037142         3.185664         1.875696
 H         0.928832         2.746621         0.536376
 H         2.306621         0.493213         3.691384
 H         0.660329        -0.162398         3.249453
 H         2.738812        -2.128118         2.477202
 H        -0.141565        -0.425170        -0.746328
 H         0.687048         1.120316        -1.069598
 H         1.449975        -0.435732        -1.683701
 H         3.675191        -1.072365         0.384336
