19
Iteration:  3074charge 0 multiplicity 1
 C         1.592211         2.548835         1.440657
 C         1.957840         0.982535         1.513989
 C         1.807139         0.202997         2.816986
 C         2.060940        -1.146633         2.202776
 O         0.878770        -1.346662         1.361822
 C         1.503975        -0.311947         0.522564
 C         0.794408         0.016469        -0.770711
 C         2.958436        -0.632924         0.962134
 O         3.346093         0.666747         1.120714
 H         2.436235         2.994243         0.918517
 H         0.637450         2.833013         0.908143
 H         1.800654         3.065538         2.446565
 H         2.646408         0.522385         3.575551
 H         0.903779        -0.037832         3.297777
 H         2.258403        -1.892191         2.973097
 H        -0.287096        -0.392536        -0.696630
 H         0.724045         1.099775        -0.813224
 H         1.206766        -0.419006        -1.641771
 H         3.560359        -1.370207         0.384110
