19
Iteration:  3822charge 0 multiplicity 1
 C         1.311828         2.220063         1.280005
 C         1.919363         0.914638         1.599564
 C         1.892308         0.138574         2.947288
 C         1.973440        -1.283366         2.207508
 O         0.864644        -1.215339         1.165331
 C         1.579527        -0.162011         0.511822
 C         1.015296         0.247953        -0.839465
 C         2.959632        -0.606871         1.001865
 O         3.408956         0.720479         1.385580
 H         0.282878         1.828163         1.067080
 H         1.225599         3.088791         1.958100
 H         1.598863         2.586383         0.285470
 H         2.749768         0.305960         3.624246
 H         0.927658         0.179136         3.450821
 H         2.120577        -2.202169         2.746632
 H         0.833021        -0.548251        -1.548578
 H         0.065080         0.682190        -0.777523
 H         1.778301         0.901176        -1.249496
 H         3.812315        -1.087395         0.469420
