19
Iteration:  1226charge 0 multiplicity 1
 C         2.684777         2.340534         0.761953
 C         2.373471         0.927559         1.189246
 C         2.695451         0.343273         2.659455
 C         2.043932        -0.951060         2.412704
 O         0.614239        -0.648281         2.252779
 C         1.045557         0.009818         0.990465
 C         0.089046         0.142848        -0.290850
 C         2.188481        -1.010624         0.828615
 O         3.159856        -0.118150         0.411416
 H         2.431833         3.016412         1.664385
 H         3.745920         2.544170         0.346805
 H         2.051845         2.676648        -0.092161
 H         3.707800         0.268413         2.964283
 H         2.133873         0.955484         3.467145
 H         2.191477        -1.897133         3.092902
 H        -0.759646        -0.612409        -0.197558
 H        -0.390016         1.160543        -0.307931
 H         0.706786        -0.045989        -1.162625
 H         1.910561        -1.993841         0.323547
