19
Iteration:   268
 C         2.544277         2.241968         0.878774
 C         2.475431         0.795015         1.127575
 C         2.779055         0.386228         2.600195
 C         1.945570        -0.879866         2.455246
 O         0.550905        -0.439965         2.180816
 C         1.061758        -0.102843         0.888188
 C         0.007553         0.219047        -0.121861
 C         2.230778        -1.089041         0.859563
 O         3.282419        -0.170532         0.337219
 H         1.893061         2.921821         1.539673
 H         3.542800         2.702499         1.160624
 H         2.352750         2.315668        -0.221770
 H         3.891754         0.229723         2.704762
 H         2.369320         1.054456         3.294220
 H         2.033123        -1.704349         3.117442
 H        -0.412628        -0.715673        -0.507221
 H        -0.737377         0.792417         0.265338
 H         0.430134         0.860905        -0.989200
 H         2.336445        -2.097723         0.433292
