19
Iteration:  2033charge 0 multiplicity 1
 C         2.258089         2.354486         0.925289
 C         2.432850         0.853657         1.260967
 C         2.571709         0.359799         2.788289
 C         2.006918        -1.010723         2.426730
 O         0.520118        -0.709834         2.003267
 C         1.222858        -0.076806         0.779998
 C         0.182828         0.131557        -0.324806
 C         2.433678        -1.003858         0.830548
 O         3.350354         0.097901         0.470736
 H         1.289848         2.746164         0.676954
 H         2.372444         2.968301         1.741859
 H         2.960228         2.656008         0.153967
 H         3.510048         0.372200         3.253402
 H         1.865345         0.781611         3.573019
 H         2.018174        -1.989806         2.960524
 H         0.527856         0.713845        -1.190000
 H        -0.323601        -0.871297        -0.463938
 H        -0.460699         0.627315         0.357253
 H         2.581407        -2.069883         0.440952
