19
Iteration:  2513
 C         1.944828         2.478816         1.137447
 C         2.136753         1.020726         1.372303
 C         2.266222         0.250755         2.899777
 C         2.047887        -1.159825         2.270700
 O         0.662147        -0.923094         1.734795
 C         1.277349        -0.200948         0.698562
 C         0.530819         0.062033        -0.470571
 C         2.701590        -0.930541         0.798126
 O         3.304230         0.359079         0.776814
 H         2.631175         2.814445         0.428960
 H         0.961025         2.611749         0.652824
 H         1.949678         2.955826         2.137207
 H         3.282843         0.717458         3.264335
 H         1.556291         0.338253         3.686514
 H         2.217222        -2.114637         2.814108
 H         1.292243        -0.083379        -1.303822
 H        -0.405238        -0.560220        -0.638542
 H         0.363359         1.166003        -0.646051
 H         3.394823        -1.633830         0.281218
