19
Iteration:  4016charge 0 multiplicity 1
 C         1.545425         2.409041         1.360740
 C         1.889409         1.008403         1.578975
 C         1.672879         0.090536         2.866250
 C         2.065465        -1.184110         2.187686
 O         0.959749        -1.433726         1.219959
 C         1.426879        -0.202964         0.554383
 C         0.984388         0.126265        -0.824958
 C         2.897262        -0.605249         0.968865
 O         3.404732         0.759614         1.309396
 H         0.507325         2.537294         0.977979
 H         1.657760         3.025832         2.252158
 H         2.187248         2.950277         0.679442
 H         2.234247         0.488281         3.771944
 H         0.668268        -0.150384         3.209535
 H         2.390279        -2.021717         2.817268
 H         0.537353        -0.757316        -1.440234
 H         0.196294         0.910456        -0.779799
 H         1.899135         0.680510        -1.280253
 H         3.695584        -1.144700         0.358670
