19
Iteration:  4693
 C         1.251511         2.415471         1.735027
 C         1.790037         0.948922         1.570242
 C         1.795956         0.120558         2.855228
 C         2.139460        -1.226647         2.140721
 O         0.980532        -1.385900         1.204508
 C         1.617620        -0.236407         0.565835
 C         1.011462        -0.026320        -0.896098
 C         3.042209        -0.510658         0.883582
 O         3.263564         0.894597         1.156778
 H         0.295519         2.392045         1.310402
 H         1.442922         2.630644         2.792133
 H         1.875202         3.105735         1.189116
 H         2.488352         0.627489         3.538174
 H         0.823770        -0.038481         3.381738
 H         2.458374        -2.161424         2.648580
 H         1.746248        -0.462295        -1.701467
 H         0.084585        -0.620622        -0.966558
 H         0.837604         0.966668        -1.305746
 H         3.847224        -0.952143         0.410631
