19
Iteration:   824
 C         2.507109         2.285304         0.647413
 C         2.469411         0.847586         1.160692
 C         2.711700         0.376610         2.621671
 C         1.957837        -0.975624         2.421712
 O         0.573286        -0.576049         2.118132
 C         1.100022        -0.012625         0.873591
 C        -0.079443         0.344568        -0.032403
 C         2.306708        -1.102210         0.848712
 O         3.382081        -0.173074         0.531063
 H         1.562383         2.817887         0.739497
 H         3.281938         2.763043         1.173331
 H         2.756844         2.168302        -0.399058
 H         3.682385         0.278143         2.822876
 H         2.220213         0.940533         3.428758
 H         2.068878        -1.804909         3.100422
 H        -0.935282        -0.205684         0.412196
 H        -0.303122         1.381216         0.003913
 H         0.033832        -0.041419        -1.002423
 H         2.241063        -2.037902         0.178903
