19
Iteration:  4292
 C         1.275917         2.279553         1.283168
 C         1.993822         0.936947         1.614353
 C         1.691771         0.144463         2.882047
 C         2.059261        -1.195717         2.196768
 O         0.943722        -1.275711         1.189853
 C         1.608302        -0.188903         0.517927
 C         0.945375         0.207811        -0.790315
 C         3.006913        -0.637476         0.972227
 O         3.423304         0.684090         1.332951
 H         0.222160         2.146460         1.404511
 H         1.575857         2.853339         2.202889
 H         1.613292         2.983656         0.528768
 H         2.480611         0.589837         3.464043
 H         0.599807         0.210581         3.272720
 H         2.208812        -2.167935         2.784049
 H         0.500336         1.241238        -0.625156
 H         1.569181         0.226544        -1.754958
 H         0.195460        -0.587637        -0.893692
 H         3.780100        -1.152030         0.475362
