19
Iteration:  1775
 C         2.576332         2.391528         0.761012
 C         2.289148         0.905702         1.261124
 C         2.594117         0.429945         2.626877
 C         1.980072        -0.927011         2.414231
 O         0.562552        -0.704373         2.099791
 C         1.111196        -0.175589         0.876954
 C         0.197080         0.187591        -0.102722
 C         2.339966        -1.083418         0.831344
 O         3.194905        -0.043015         0.455613
 H         3.488597         2.803855         1.203633
 H         2.743577         2.363761        -0.334108
 H         1.732564         3.155406         1.052598
 H         3.689128         0.349070         2.866524
 H         2.121214         0.959974         3.455291
 H         2.196406        -1.893401         3.024349
 H         0.678415         0.973534        -0.800263
 H        -0.069430        -0.665217        -0.753117
 H        -0.735411         0.705277         0.392229
 H         2.540372        -2.105195         0.321555
