19
Iteration:   953
 C         2.605658         2.258232         0.641033
 C         2.479753         0.886712         1.190416
 C         2.744022         0.376475         2.700093
 C         1.993847        -0.973312         2.399111
 O         0.585396        -0.606784         2.148295
 C         1.057208        -0.053731         0.844569
 C        -0.089610         0.317234        -0.129313
 C         2.246936        -1.043048         0.874039
 O         3.275610        -0.139225         0.509351
 H         2.017374         2.918467         1.254385
 H         3.686373         2.575163         0.648708
 H         2.325296         2.275103        -0.439428
 H         3.868838         0.118356         2.808772
 H         2.418936         1.105766         3.517699
 H         2.028623        -1.781237         3.033491
 H        -0.411689        -0.674873        -0.573030
 H        -0.858037         0.543972         0.583866
 H         0.119748         1.170559        -0.745703
 H         2.143264        -2.100524         0.490995
