19
Iteration:  4499charge 0 multiplicity 1
 C         1.368981         2.314668         1.538672
 C         1.912539         0.982167         1.573218
 C         1.654682         0.108501         2.869251
 C         2.105199        -1.212319         2.175860
 O         1.047035        -1.293209         1.127103
 C         1.631028        -0.220368         0.484651
 C         0.810422         0.046834        -0.889725
 C         3.087356        -0.511590         0.975426
 O         3.346905         0.810854         1.313156
 H         0.305598         2.252388         1.481507
 H         1.643994         3.072077         2.322528
 H         1.735670         2.850170         0.593196
 H         2.119105         0.370229         3.818215
 H         0.636127        -0.051402         3.252047
 H         2.350804        -2.223819         2.612121
 H        -0.087879        -0.546370        -0.612020
 H         0.492944         1.020314        -1.200906
 H         1.360648        -0.544057        -1.513418
 H         3.894296        -1.127714         0.805706
