19
Iteration:  2569
 C         1.962669         2.528992         1.188026
 C         2.137917         1.014851         1.381520
 C         2.155230         0.282583         2.777675
 C         2.037376        -1.108990         2.308813
 O         0.696835        -1.031480         1.664944
 C         1.367834        -0.340340         0.616291
 C         0.454963         0.054715        -0.487139
 C         2.704100        -0.876838         0.882890
 O         3.379519         0.426069         0.842074
 H         1.633563         2.741398         0.167698
 H         1.368583         2.795868         2.075963
 H         2.979250         2.933585         1.279592
 H         3.079938         0.444463         3.399976
 H         1.193735         0.569086         3.306118
 H         2.312085        -1.977212         2.898170
 H        -0.049299        -0.776115        -1.066236
 H        -0.322716         0.657399         0.019510
 H         1.041643         0.753797        -1.242071
 H         3.278062        -1.678166         0.366933
