19
Iteration:  2369charge 0 multiplicity 1
 C         2.044370         2.357654         1.156716
 C         2.277018         0.875982         1.397017
 C         2.290109         0.452150         2.882638
 C         1.997912        -1.052107         2.383313
 O         0.644769        -0.892940         1.803303
 C         1.307142        -0.257154         0.632336
 C         0.365918         0.147041        -0.489347
 C         2.634712        -0.930134         0.793893
 O         3.387950         0.268582         0.632835
 H         1.259046         2.756835         1.785147
 H         2.947527         2.917602         1.312768
 H         1.644691         2.363073         0.128591
 H         3.285397         0.442013         3.355991
 H         1.592318         0.857658         3.660071
 H         2.105657        -1.935793         3.018902
 H        -0.533397        -0.535011        -0.451885
 H        -0.095361         1.184197        -0.432916
 H         0.784305         0.111947        -1.475705
 H         3.060345        -1.855909         0.375306
