19
Iteration:  4279charge 0 multiplicity 1
 C         1.334704         2.290494         1.475529
 C         1.939395         0.977534         1.519082
 C         1.786566         0.212685         2.862593
 C         2.025283        -1.152241         2.145543
 O         0.920245        -1.264806         1.217418
 C         1.628515        -0.214392         0.447232
 C         0.944993         0.146368        -0.840359
 C         2.986488        -0.643327         1.014572
 O         3.427874         0.685650         1.351716
 H         0.282347         1.917431         1.197908
 H         1.237632         3.075364         2.303059
 H         1.554869         2.642373         0.479622
 H         2.420694         0.337504         3.757502
 H         0.686571         0.140327         3.276881
 H         2.220547        -2.023795         2.750284
 H         0.209323         0.947340        -0.717669
 H         1.714161         0.372078        -1.620223
 H         0.301412        -0.698777        -1.245486
 H         3.648591        -1.403050         0.560696
