19
Iteration:   637
 C         2.637577         2.253478         0.613013
 C         2.388460         0.897612         1.221115
 C         2.671073         0.351315         2.679637
 C         2.028718        -1.016583         2.403069
 O         0.585257        -0.640763         2.194250
 C         1.134655         0.002610         0.956841
 C         0.034982         0.274687        -0.134212
 C         2.213254        -1.059831         0.837901
 O         3.207125        -0.063488         0.497828
 H         1.888818         2.984920         0.711878
 H         3.523704         2.798168         1.016321
 H         2.716888         2.178423        -0.479781
 H         3.727109         0.395507         2.797350
 H         2.146708         0.846473         3.440274
 H         2.200793        -1.953120         3.066545
 H        -0.758960        -0.491450        -0.119877
 H        -0.375407         1.168244         0.044322
 H         0.440276         0.281777        -1.177768
 H         2.073157        -1.943222         0.049793
