19
Iteration:  1983
 C         2.492919         2.393289         0.950736
 C         2.288596         0.883681         1.281566
 C         2.544254         0.477330         2.698386
 C         2.046847        -1.058609         2.400427
 O         0.585598        -0.794127         2.076772
 C         1.127988        -0.137637         0.822168
 C         0.162021         0.089148        -0.380207
 C         2.373488        -1.021519         0.876511
 O         3.243490         0.131571         0.480440
 H         1.717314         3.023936         0.453674
 H         2.664184         3.082878         1.857139
 H         3.405416         2.383169         0.275794
 H         3.617323         0.485081         3.104500
 H         1.896517         0.791740         3.440795
 H         2.144212        -1.834095         3.141301
 H         0.047663         1.157654        -0.395145
 H         0.784678        -0.107513        -1.245116
 H        -0.789830        -0.492705        -0.373963
 H         2.378161        -1.961525         0.370221
