19
Iteration:  1601
 C         2.467712         2.347200         0.723820
 C         2.366390         0.830423         1.194184
 C         2.610866         0.360920         2.575435
 C         2.042104        -0.995084         2.444496
 O         0.605879        -0.497536         2.216046
 C         1.084807        -0.144839         0.832491
 C        -0.022526         0.353688        -0.103652
 C         2.344658        -1.125940         0.829891
 O         3.380014        -0.174821         0.439574
 H         1.565313         2.839532         0.563964
 H         3.037503         2.802329         1.527039
 H         3.261743         2.449855        -0.085335
 H         3.709496         0.386396         2.947733
 H         1.971706         0.757891         3.386616
 H         2.221296        -1.827871         3.261634
 H        -0.889854         0.377456         0.561449
 H         0.044730         1.324677        -0.554152
 H        -0.098340        -0.226358        -1.082253
 H         2.246324        -2.207897         0.362674
