19
Iteration:  3545charge 0 multiplicity 1
 C         1.592052         2.480811         1.610299
 C         1.829400         0.964761         1.515215
 C         1.591046         0.122960         2.894715
 C         2.034346        -1.168593         2.134500
 O         0.988971        -1.530606         1.169285
 C         1.580150        -0.172133         0.436235
 C         1.089231         0.004558        -0.961248
 C         2.930205        -0.565334         1.069179
 O         3.239421         0.821398         1.326443
 H         0.618569         2.812854         2.080248
 H         2.486610         3.107014         1.801126
 H         1.416299         2.859336         0.584275
 H         2.066460         0.407914         3.774138
 H         0.429964         0.208195         3.100237
 H         2.508284        -1.918884         2.738343
 H         1.613214        -0.696919        -1.554309
 H        -0.035720        -0.134973        -0.867434
 H         1.312856         1.063586        -1.182180
 H         3.754287        -0.931689         0.543169
