19
Iteration:  3338
 C         1.247587         2.265833         1.411829
 C         1.929798         0.990865         1.611517
 C         1.762868         0.113873         2.862423
 C         2.116344        -1.181067         2.228622
 O         0.850983        -1.344462         1.289373
 C         1.492138        -0.239784         0.531279
 C         1.214895         0.154085        -0.902779
 C         2.943548        -0.556242         0.948981
 O         3.337711         0.797681         1.269138
 H         1.885796         2.776347         0.673926
 H         0.215340         2.226789         1.013461
 H         1.205808         2.814357         2.321103
 H         2.544673         0.222075         3.579479
 H         0.641979         0.081866         3.287034
 H         2.290854        -2.183150         2.652423
 H         0.479037        -0.494639        -1.362523
 H         0.958456         1.274390        -0.869033
 H         2.165107         0.067874        -1.527416
 H         3.690055        -1.164172         0.336243
