19
Iteration:   572charge 0 multiplicity 1
 C         2.480944         2.312887         0.883734
 C         2.369194         0.826982         1.153527
 C         2.808843         0.421707         2.570207
 C         1.952528        -0.919897         2.444030
 O         0.582943        -0.472721         2.192588
 C         1.066670        -0.119532         0.860770
 C         0.123264         0.234670        -0.182225
 C         2.262755        -1.149741         0.909980
 O         3.214161        -0.181512         0.374454
 H         1.793420         2.782776         1.533423
 H         3.462949         2.670744         1.316928
 H         2.344096         2.579642        -0.179137
 H         3.853815         0.206441         2.605657
 H         2.396784         1.101232         3.311827
 H         2.072793        -1.777311         3.247608
 H        -0.923355        -0.187170        -0.250194
 H         0.086443         1.278727        -0.139557
 H         0.649820         0.153241        -1.196779
 H         2.301920        -2.190110         0.337338
