19
Iteration:  2263charge 0 multiplicity 1
 C         2.201222         2.424831         1.095911
 C         2.295097         0.891489         1.273858
 C         2.353450         0.428216         2.772843
 C         2.098768        -1.046569         2.362791
 O         0.654886        -0.873739         1.841787
 C         1.154845        -0.126749         0.688824
 C         0.180769         0.101965        -0.431133
 C         2.578060        -1.022977         0.843092
 O         3.417779         0.202351         0.733812
 H         2.546219         2.642112         0.114438
 H         1.177742         2.818068         1.131728
 H         2.708999         2.987848         1.947452
 H         3.396444         0.701201         3.148290
 H         1.626361         0.787854         3.397796
 H         2.284819        -1.965381         2.945163
 H         0.481375         0.760649        -1.192939
 H        -0.106157        -0.887564        -0.813664
 H        -0.763340         0.497295        -0.127289
 H         2.719007        -1.965507         0.303526
