19
Iteration:  2713charge 0 multiplicity 1
 C         1.800134         2.374075         1.212510
 C         2.064158         0.890980         1.490888
 C         2.206667         0.313850         2.822299
 C         1.997065        -1.088566         2.324118
 O         0.731646        -1.074591         1.578171
 C         1.332599        -0.140136         0.623780
 C         0.576009         0.067596        -0.621702
 C         2.798753        -0.804789         0.810095
 O         3.403097         0.456884         0.945677
 H         1.863743         3.051847         2.140802
 H         2.614781         2.654310         0.587370
 H         0.783073         2.442005         0.940867
 H         3.072660         0.467957         3.448164
 H         1.187451         0.328510         3.377276
 H         2.066301        -2.000812         2.924242
 H         1.069098         0.942736        -1.086794
 H         0.561694        -0.869044        -1.261329
 H        -0.521705         0.401538        -0.291839
 H         3.423621        -1.451326         0.232277
