19
Iteration:  2758
 C         1.917355         2.459467         1.290667
 C         2.065783         0.948088         1.521805
 C         1.979005         0.319541         2.827984
 C         2.088377        -1.129876         2.275553
 O         0.803412        -1.182578         1.522148
 C         1.358016        -0.227688         0.672717
 C         0.535301         0.026214        -0.629791
 C         2.755924        -0.756269         0.828034
 O         3.380475         0.523188         0.930779
 H         2.884152         2.982577         1.439073
 H         1.687927         2.650787         0.273560
 H         1.330061         2.959030         2.049522
 H         2.907907         0.525759         3.428153
 H         1.047226         0.634775         3.317834
 H         1.993456        -1.973224         2.984586
 H         1.156189        -0.453634        -1.466586
 H        -0.332842        -0.682885        -0.642407
 H         0.256567         1.074645        -0.925542
 H         3.311132        -1.403848         0.189316
