19
Iteration:   746
 C         2.577573         2.316873         0.706507
 C         2.346718         0.908525         1.291320
 C         2.797968         0.329528         2.643626
 C         2.022836        -0.976806         2.477027
 O         0.519556        -0.502513         2.222238
 C         1.049887        -0.044922         0.949683
 C         0.191962         0.152671        -0.220513
 C         2.193065        -1.051845         0.826507
 O         3.175622        -0.106442         0.383183
 H         2.618112         2.945083         1.528763
 H         3.598291         2.222085         0.194863
 H         1.836379         2.673777        -0.029349
 H         3.875767         0.329173         2.597724
 H         2.451712         0.772983         3.507149
 H         2.120821        -1.888649         3.207121
 H        -0.337677        -0.776316        -0.589811
 H        -0.656975         0.741015        -0.087339
 H         0.634738         0.718066        -1.089665
 H         2.135383        -2.158823         0.331739
