19
Iteration:  2471charge 0 multiplicity 1
 C         2.070355         2.541243         1.287039
 C         2.243336         0.951096         1.383861
 C         2.264763         0.435619         2.806247
 C         2.081987        -1.041055         2.287161
 O         0.669841        -1.024133         1.743968
 C         1.222289        -0.235133         0.659316
 C         0.359094        -0.019474        -0.597063
 C         2.627287        -0.882208         0.814170
 O         3.390335         0.271788         0.796697
 H         2.970636         3.105151         1.479615
 H         1.494522         2.909994         0.394125
 H         1.327061         2.618533         2.088021
 H         3.269816         0.595963         3.299001
 H         1.389737         0.788105         3.318247
 H         2.235084        -1.942795         2.889253
 H         0.662239         0.883559        -1.088168
 H         0.519393        -0.883274        -1.192862
 H        -0.714049         0.158710        -0.489110
 H         3.033059        -1.762487         0.299245
