19
Iteration:  4704
 C         1.172829         2.387360         1.758587
 C         1.817084         0.997551         1.556251
 C         1.845855         0.078155         2.825375
 C         2.195763        -1.264495         2.077941
 O         0.984754        -1.242308         1.250555
 C         1.517924        -0.230635         0.477232
 C         1.032939        -0.085456        -0.924536
 C         3.076533        -0.532779         0.956395
 O         3.285980         0.851174         1.199827
 H         0.147113         2.519311         1.503180
 H         1.106728         2.843038         2.763840
 H         1.686719         3.050761         1.081901
 H         2.701142         0.351956         3.457912
 H         0.860365         0.101187         3.338286
 H         2.352268        -2.157832         2.730098
 H         1.688773        -0.813129        -1.561976
 H        -0.015238        -0.423414        -0.985038
 H         1.076639         0.963936        -1.210607
 H         3.745309        -0.926959         0.281983
