19
Iteration:  3983
 C         1.375628         2.303833         1.313599
 C         1.857846         0.874404         1.545931
 C         1.765894         0.163359         2.871642
 C         2.013562        -1.210506         2.218393
 O         0.880089        -1.311790         1.235501
 C         1.527980        -0.247088         0.522091
 C         1.080848         0.298960        -0.778881
 C         3.022288        -0.666967         1.034202
 O         3.344477         0.723553         1.240149
 H         0.328643         2.441559         1.657632
 H         2.001088         2.889998         1.975144
 H         1.488783         2.616025         0.271732
 H         2.540902         0.667761         3.549377
 H         0.848480        -0.119206         3.331868
 H         2.269014        -1.960160         2.928903
 H         0.947910        -0.421836        -1.695682
 H         0.131338         0.851944        -0.558462
 H         1.915167         1.022544        -1.036667
 H         3.788635        -1.332674         0.577813
