19
Iteration:  4797charge 0 multiplicity 1
 C         1.334164         2.342649         1.498984
 C         1.791707         0.951635         1.610659
 C         1.645815         0.011245         2.914169
 C         2.238540        -1.094651         2.087361
 O         1.209493        -1.525596         1.176072
 C         1.565576        -0.218770         0.524808
 C         0.880851         0.085130        -0.822738
 C         2.958654        -0.447271         0.932360
 O         3.259476         0.896560         1.297783
 H         0.561347         2.467937         2.308891
 H         2.122301         2.966333         1.834195
 H         0.909460         2.595127         0.547403
 H         2.422454         0.260879         3.610245
 H         0.603458        -0.136017         3.258164
 H         2.563499        -1.995736         2.524028
 H        -0.068366        -0.342422        -0.879222
 H         0.832903         1.193933        -0.899970
 H         1.469947        -0.084667        -1.728122
 H         3.689150        -0.979878         0.232601
