19
Iteration:  3142
 C         1.408127         2.346653         1.474190
 C         1.978664         1.000195         1.556958
 C         1.914611         0.202929         2.862927
 C         2.070065        -1.123595         2.135190
 O         0.835187        -1.186944         1.311926
 C         1.513356        -0.208114         0.557801
 C         0.934829        -0.063779        -0.821383
 C         2.928275        -0.706498         0.925679
 O         3.364203         0.713141         1.206418
 H         0.728526         2.376185         0.588379
 H         0.839946         2.528871         2.452200
 H         2.157144         3.131758         1.227506
 H         2.669682         0.456552         3.587505
 H         0.931594         0.259816         3.430778
 H         2.082779        -2.078682         2.729819
 H         0.810414         1.014147        -1.055180
 H         1.523031        -0.405980        -1.680973
 H        -0.048204        -0.449920        -0.782505
 H         3.726810        -1.180484         0.250830
