19
Iteration:  1858charge 0 multiplicity 1
 C         2.490355         2.307410         0.866408
 C         2.325041         0.859593         1.332447
 C         2.632967         0.362363         2.696658
 C         2.039718        -0.936832         2.386714
 O         0.632179        -0.628596         2.111119
 C         1.093258        -0.140225         0.870338
 C         0.084749         0.176853        -0.372202
 C         2.356362        -1.054923         0.861129
 O         3.233490         0.018234         0.497929
 H         3.086681         2.252912        -0.076472
 H         1.516388         2.649353         0.522770
 H         2.715661         3.112254         1.537593
 H         3.693619         0.334544         2.822402
 H         2.039823         0.841693         3.586520
 H         2.096504        -1.789051         3.053884
 H         0.010450        -0.615595        -1.148772
 H        -0.907567         0.491633         0.097544
 H         0.548613         1.062684        -0.852703
 H         2.647612        -2.027295         0.360090
