19
Iteration:  4813
 C         1.250149         2.480225         1.626383
 C         1.825026         0.966074         1.645295
 C         1.744158         0.056752         2.835023
 C         2.256527        -1.295780         2.085411
 O         1.082005        -1.432216         1.112033
 C         1.541845        -0.215105         0.463929
 C         0.905083        -0.024118        -0.814178
 C         3.060456        -0.449877         0.920683
 O         3.265732         0.923220         1.323504
 H         0.311755         2.603755         2.159284
 H         2.187682         3.130187         1.829499
 H         0.992764         2.644079         0.531293
 H         2.226947         0.409483         3.798619
 H         0.705628        -0.186201         3.074811
 H         2.684357        -2.138796         2.742248
 H        -0.135480        -0.492048        -0.601358
 H         0.804533         0.990381        -1.200708
 H         1.326170        -0.739481        -1.548748
 H         3.925003        -0.849131         0.429621
