19
Iteration:  2822charge 0 multiplicity 1
 C         1.722009         2.344943         1.317221
 C         2.097667         0.984119         1.547812
 C         2.109633         0.247223         2.837919
 C         2.071450        -1.077576         2.236135
 O         0.701364        -1.120140         1.541562
 C         1.317575        -0.150374         0.607850
 C         0.721864        -0.032544        -0.740642
 C         2.751031        -0.740128         0.863039
 O         3.420959         0.565192         0.972774
 H         2.237360         2.784878         0.394265
 H         0.686123         2.549416         1.609958
 H         2.385034         2.931661         2.039010
 H         2.991971         0.398111         3.526416
 H         1.167912         0.454484         3.465806
 H         2.267886        -1.981241         2.809685
 H        -0.068529        -0.804481        -0.483979
 H         0.000910         0.812261        -0.863926
 H         1.372803        -0.189384        -1.674526
 H         3.087593        -1.539145         0.251797
