19
Iteration:  2795
 C         1.857833         2.588305         1.409552
 C         2.069645         1.030921         1.492639
 C         2.000642         0.316576         2.770638
 C         2.105137        -1.176531         2.304324
 O         0.761139        -1.134026         1.541432
 C         1.318867        -0.319315         0.574102
 C         0.620999        -0.011507        -0.695930
 C         2.820332        -0.843766         0.868642
 O         3.336032         0.509408         0.925936
 H         2.682068         2.995814         0.837996
 H         0.826600         2.791386         1.005777
 H         1.811984         3.126857         2.390026
 H         2.911568         0.628756         3.279582
 H         1.186216         0.575983         3.422509
 H         2.296817        -2.107723         2.897781
 H         0.522258        -0.983556        -1.205267
 H        -0.365517         0.407363        -0.508042
 H         1.213499         0.641411        -1.293239
 H         3.416302        -1.661330         0.341893
