19
Iteration:  1198
 C         2.683813         2.282002         0.837201
 C         2.351706         0.881344         1.167295
 C         2.639559         0.448874         2.564538
 C         2.014721        -0.926624         2.469817
 O         0.621412        -0.566475         2.204917
 C         1.080944        -0.186808         0.935947
 C         0.116592         0.243185        -0.165989
 C         2.257489        -1.104490         0.808166
 O         3.126360        -0.113012         0.361775
 H         2.344905         2.868222         1.656038
 H         3.716708         2.437892         0.761896
 H         2.225523         2.594912        -0.113494
 H         3.710254         0.500578         2.909945
 H         2.027450         1.094203         3.193928
 H         2.074220        -1.693027         3.218736
 H        -0.497555        -0.556063        -0.514846
 H        -0.531741         0.843023         0.455182
 H         0.645660         0.679431        -1.043048
 H         2.145550        -2.112435         0.342970
