19
Iteration:  4155charge 0 multiplicity 1
 C         1.438551         2.380544         1.330608
 C         1.929392         0.956583         1.628379
 C         1.673944         0.144651         2.808223
 C         1.968908        -1.144963         2.145258
 O         0.936258        -1.241770         1.195887
 C         1.638106        -0.237795         0.489814
 C         0.926220         0.143843        -0.818641
 C         2.990630        -0.686012         1.060470
 O         3.452252         0.667546         1.383481
 H         0.525980         2.443709         2.000176
 H         2.134777         3.183583         1.600812
 H         1.083310         2.365584         0.243851
 H         2.317063         0.449175         3.742606
 H         0.635398         0.144172         3.038769
 H         2.191894        -2.085581         2.732492
 H         0.584622        -0.788740        -1.290781
 H         0.024893         0.738159        -0.622072
 H         1.447682         0.771697        -1.480561
 H         3.644970        -1.275047         0.377482
