19
Iteration:  1507charge 0 multiplicity 1
 C         2.542495         2.303654         0.856147
 C         2.403811         0.877020         1.185551
 C         2.625939         0.425272         2.649229
 C         1.945145        -0.940986         2.453951
 O         0.644152        -0.544857         2.178161
 C         1.141860        -0.085574         0.858418
 C         0.064485         0.197940        -0.135056
 C         2.248015        -1.075482         0.810415
 O         3.264685        -0.172879         0.341285
 H         1.957514         2.814738         1.653905
 H         3.647318         2.474400         0.990017
 H         2.365211         2.685239        -0.127283
 H         3.753320         0.440188         2.794789
 H         2.230054         1.203388         3.201379
 H         2.048107        -1.742706         3.240308
 H        -0.826969        -0.329937         0.303211
 H        -0.349661         1.142588        -0.422792
 H         0.331336        -0.179417        -1.117157
 H         2.210485        -2.011517         0.365935
