19
Iteration:  1989
 C         2.493361         2.436031         0.952442
 C         2.185265         0.900094         1.254010
 C         2.574807         0.448380         2.698242
 C         2.069855        -1.035598         2.356731
 O         0.579193        -0.792388         2.093526
 C         1.167167        -0.161961         0.827120
 C         0.204158         0.120670        -0.369024
 C         2.335948        -1.049749         0.892277
 O         3.251270         0.103936         0.510762
 H         1.815764         3.149932         0.472727
 H         2.631240         2.937549         1.876986
 H         3.331139         2.425318         0.267329
 H         3.611713         0.621714         2.976903
 H         1.844957         0.795115         3.540586
 H         2.237124        -1.820725         3.141993
 H         0.086086         1.236560        -0.523575
 H         0.643404        -0.389847        -1.316145
 H        -0.739908        -0.408760        -0.359981
 H         2.448433        -1.990689         0.255428
