19
Iteration:   301charge 0 multiplicity 1
 C         2.720986         2.343679         0.716809
 C         2.296014         0.913623         1.161700
 C         2.692815         0.435496         2.641660
 C         2.077721        -0.965604         2.454849
 O         0.585303        -0.634383         2.208643
 C         1.035295        -0.110746         0.961977
 C         0.155847         0.271931        -0.135211
 C         2.143330        -1.116456         0.831983
 O         3.130951        -0.164065         0.416370
 H         2.213374         3.253096         1.272928
 H         3.908543         2.266965         0.666915
 H         2.517576         2.544428        -0.389229
 H         3.798059         0.587808         2.847281
 H         2.211472         0.992814         3.420768
 H         2.202804        -1.772488         3.173339
 H        -0.138367        -0.549777        -0.812619
 H        -0.767734         0.607374         0.165606
 H         0.547567         1.061565        -0.861188
 H         2.139858        -2.048715         0.257690
