19
Iteration:  4265charge 0 multiplicity 1
 C         1.315759         2.353668         1.497439
 C         1.972562         0.950739         1.590842
 C         1.787610         0.145229         2.824610
 C         2.027092        -1.158386         2.163041
 O         0.893536        -1.229470         1.230079
 C         1.516753        -0.224837         0.493756
 C         0.999801         0.035825        -0.928751
 C         2.981235        -0.653700         1.008571
 O         3.406010         0.716336         1.307580
 H         0.166662         2.345782         1.455965
 H         1.583321         2.880804         2.462196
 H         1.762816         3.064246         0.776958
 H         2.610169         0.585244         3.468620
 H         0.799383         0.288414         3.264291
 H         2.164947        -2.094275         2.694003
 H         0.121378         0.678806        -0.883224
 H         1.700091         0.668813        -1.425105
 H         0.814773        -0.895224        -1.483782
 H         3.861432        -1.254967         0.610578
