19
Iteration:  2982
 C         1.639037         2.404709         1.439789
 C         1.952166         0.999452         1.460445
 C         1.861299         0.303297         2.911383
 C         2.109378        -1.138106         2.221960
 O         0.820862        -1.269901         1.505195
 C         1.410104        -0.229215         0.615860
 C         0.865610         0.036982        -0.765991
 C         2.830614        -0.730357         0.815028
 O         3.396280         0.588263         0.990186
 H         1.703390         2.775564         2.485793
 H         2.406635         2.799854         0.801833
 H         0.638841         2.644063         1.200571
 H         2.662190         0.733548         3.463344
 H         0.849396         0.556447         3.413468
 H         2.297514        -2.019819         2.852974
 H         1.646151        -0.145945        -1.460231
 H        -0.084912        -0.506719        -1.029279
 H         0.592702         1.168784        -0.881869
 H         3.377990        -1.425463         0.181525
