19
Iteration:  1057charge 0 multiplicity 1
 C         2.513284         2.259915         0.831551
 C         2.455090         0.872533         1.212487
 C         2.737325         0.319014         2.701124
 C         1.941485        -1.005189         2.441146
 O         0.644097        -0.391001         2.188308
 C         1.127168        -0.038435         0.865364
 C         0.016523         0.133384        -0.131886
 C         2.268291        -1.070922         0.746324
 O         3.204680        -0.127486         0.365628
 H         2.045329         2.939147         1.593414
 H         3.557480         2.754759         0.840803
 H         2.265324         2.503636        -0.269919
 H         3.840049         0.411057         2.934063
 H         2.209223         0.951833         3.496025
 H         1.789293        -1.948126         3.121226
 H        -0.938768        -0.358707        -0.048617
 H        -0.256870         1.216391        -0.303723
 H         0.436688        -0.340058        -1.116063
 H         2.330645        -2.036607         0.237110
