19
Iteration:   259charge 0 multiplicity 1
 C         2.524448         2.283084         0.853042
 C         2.449862         0.783618         1.161225
 C         2.745135         0.371800         2.611393
 C         2.013615        -0.925645         2.446342
 O         0.578031        -0.366334         2.169206
 C         1.127288        -0.042201         0.861437
 C         0.013656         0.212718        -0.105252
 C         2.210540        -1.141150         0.765873
 O         3.269097        -0.202370         0.402911
 H         1.614831         2.649903         1.385254
 H         3.511911         2.645491         1.047043
 H         2.321217         2.657344        -0.171214
 H         3.874767         0.338315         2.794365
 H         2.238842         0.920053         3.422454
 H         1.968346        -1.710919         3.203510
 H        -0.447117        -0.786072        -0.346624
 H        -0.716819         0.813873         0.474384
 H         0.438170         0.593148        -1.055852
 H         2.198025        -2.087774         0.300940
