19
Iteration:   800charge 0 multiplicity 1
 C         2.593448         2.273026         0.742992
 C         2.383013         0.828884         1.146076
 C         2.630121         0.472309         2.613894
 C         1.997404        -0.902481         2.448976
 O         0.644750        -0.571764         2.101844
 C         1.083374        -0.173618         0.845822
 C         0.033015         0.343184        -0.048048
 C         2.310083        -1.163653         0.878540
 O         3.210441        -0.126456         0.439130
 H         1.965774         2.888781         1.276899
 H         3.660905         2.413878         1.093514
 H         2.369241         2.388705        -0.324895
 H         3.747329         0.500666         2.784269
 H         2.157530         0.951410         3.413877
 H         2.083733        -1.799535         3.153755
 H        -0.962373        -0.112908         0.320213
 H        -0.039667         1.376394         0.160603
 H         0.109277         0.109158        -1.163155
 H         2.426916        -2.241090         0.426096
