19
Iteration:  4058
 C         1.480153         2.485242         1.693103
 C         1.967696         0.978678         1.512838
 C         1.742583         0.161441         2.903513
 C         2.031557        -1.139135         2.144952
 O         0.851519        -1.186169         1.182578
 C         1.559393        -0.216490         0.398725
 C         0.909808        -0.187830        -0.987348
 C         3.012729        -0.579425         1.006772
 O         3.388052         0.738372         1.320977
 H         0.577399         2.566568         1.076135
 H         1.354754         2.688004         2.733539
 H         2.276803         3.129831         1.293983
 H         2.652116         0.332218         3.562548
 H         0.783263         0.215992         3.313727
 H         1.890608        -2.086676         2.668136
 H         0.949990        -1.271866        -1.378454
 H        -0.164099         0.010442        -0.881120
 H         1.400271         0.398295        -1.751297
 H         3.587241        -1.395073         0.570025
