19
Iteration:  1258charge 0 multiplicity 1
 C         2.548211         2.282024         0.730533
 C         2.345834         0.823670         1.197430
 C         2.728692         0.285916         2.656159
 C         1.998703        -0.949927         2.385141
 O         0.565037        -0.474061         2.125383
 C         1.082429        -0.106153         0.927700
 C         0.051658         0.225689        -0.108869
 C         2.353998        -1.083270         0.853270
 O         3.232572        -0.067828         0.439922
 H         2.103300         2.995731         1.541600
 H         3.661362         2.596014         0.530626
 H         1.917513         2.637156        -0.086198
 H         3.822643         0.139305         2.810657
 H         2.241106         0.940732         3.504807
 H         1.987871        -1.849212         3.129258
 H        -0.950449        -0.208953         0.231813
 H        -0.037745         1.313316        -0.403803
 H         0.291035        -0.096983        -1.116577
 H         2.453916        -2.093463         0.456529
