19
Iteration:   431charge 0 multiplicity 1
 C         2.583588         2.291470         0.700854
 C         2.372157         0.898897         1.249882
 C         2.814866         0.309592         2.628610
 C         1.950854        -0.937088         2.427907
 O         0.583366        -0.575065         2.239346
 C         0.998531        -0.089355         0.967495
 C         0.106447         0.265812        -0.263325
 C         2.199872        -1.033905         0.842696
 O         3.186894        -0.082701         0.461082
 H         1.759712         2.853331         0.855694
 H         3.392238         2.780389         1.238271
 H         2.717116         1.995684        -0.306560
 H         3.806008        -0.062931         2.354529
 H         2.787367         0.972563         3.458017
 H         2.197707        -1.841520         3.087466
 H        -0.548376        -0.663282        -0.334660
 H        -0.408596         1.161433        -0.131343
 H         0.900529         0.341769        -1.098585
 H         2.312493        -2.035044         0.370671
