19
Iteration:  2628charge 0 multiplicity 1
 C         2.009647         2.597099         1.220704
 C         2.137707         1.037522         1.506895
 C         2.149781         0.300882         2.850388
 C         2.003786        -1.182932         2.210338
 O         0.661674        -1.101159         1.694665
 C         1.311213        -0.262610         0.688823
 C         0.477905        -0.052578        -0.628452
 C         2.732408        -0.855709         0.809046
 O         3.386034         0.496773         0.862430
 H         0.971811         3.014629         1.195636
 H         2.361770         3.226202         2.061365
 H         2.695167         2.885777         0.378750
 H         3.068378         0.299418         3.418907
 H         1.333121         0.527916         3.552981
 H         2.231225        -2.146402         2.704384
 H        -0.593374        -0.100347        -0.425022
 H         0.725244         0.757705        -1.305296
 H         0.759209        -0.927065        -1.211122
 H         3.388906        -1.408165         0.163287
