19
Iteration:  4390
 C         1.324600         2.381316         1.836864
 C         1.878303         1.041044         1.572651
 C         1.752973         0.192063         2.881867
 C         2.055546        -1.157161         2.162234
 O         0.934523        -1.233311         1.225842
 C         1.540638        -0.202114         0.495589
 C         1.057785        -0.197922        -1.096219
 C         3.003525        -0.564745         0.927570
 O         3.344810         0.757582         1.209435
 H         0.294901         2.206687         2.093240
 H         2.033815         2.999386         2.481578
 H         1.365676         2.833630         0.788150
 H         2.593382         0.368194         3.544923
 H         0.683296         0.258948         3.302452
 H         2.354028        -2.012280         2.840764
 H         1.882625        -0.263734        -1.867129
 H         0.168381        -0.814576        -1.360686
 H         0.649091         0.777289        -1.346388
 H         3.730972        -1.203277         0.527184
