19
Iteration:  4319charge 0 multiplicity 1
 C         1.470096         2.350859         1.309457
 C         1.893901         0.968385         1.700122
 C         1.677837         0.079555         2.892975
 C         2.136173        -1.219442         2.113277
 O         0.935448        -1.389763         1.224588
 C         1.580134        -0.261233         0.491802
 C         0.988039         0.186606        -0.838817
 C         2.945308        -0.546979         1.020762
 O         3.284155         0.790008         1.309610
 H         0.354653         2.418404         1.452953
 H         1.888737         3.086559         1.991465
 H         1.833244         2.721695         0.350803
 H         2.504060         0.504693         3.524921
 H         0.703757        -0.104702         3.213229
 H         2.352242        -2.007938         2.836721
 H         1.089557         1.251018        -0.878187
 H         1.342343        -0.337787        -1.693087
 H        -0.083022        -0.126635        -0.732042
 H         3.787862        -1.064086         0.451191
