19
Iteration:  1330
 C         2.569700         2.284492         0.638856
 C         2.326933         0.917037         1.246234
 C         2.741871         0.340167         2.627274
 C         1.995902        -1.046658         2.492826
 O         0.638477        -0.560439         2.199925
 C         1.083615        -0.090085         0.944133
 C         0.084304         0.302392        -0.130422
 C         2.273464        -1.087668         0.808286
 O         3.144167        -0.081917         0.435201
 H         1.705678         2.904632         0.473384
 H         3.283031         2.840536         1.215294
 H         2.970460         2.090787        -0.394786
 H         3.908323         0.352459         2.797151
 H         2.261323         0.679073         3.493008
 H         1.988922        -1.745636         3.271533
 H        -0.534492        -0.561787        -0.501057
 H        -0.571459         1.106421         0.172179
 H         0.626597         0.627156        -1.085772
 H         2.491693        -2.014113         0.218424
