19
Iteration:   103
 C         2.641029         2.197798         0.771520
 C         2.410878         0.821235         1.186425
 C         2.738609         0.425261         2.675692
 C         2.095921        -0.937749         2.448050
 O         0.598645        -0.513837         2.238382
 C         1.036274         0.009728         0.945649
 C         0.080182         0.232315        -0.181522
 C         2.154027        -1.015324         0.823609
 O         3.156725        -0.208350         0.339178
 H         1.993581         2.749830         1.411008
 H         3.648177         2.525835         0.877943
 H         2.301870         2.393893        -0.200326
 H         3.768958         0.475593         2.878016
 H         2.144329         1.077876         3.270808
 H         2.306258        -1.845303         3.077861
 H         0.028246        -0.661866        -0.860810
 H        -0.957532         0.458271         0.176694
 H         0.272993         1.117528        -0.944214
 H         2.089359        -2.098462         0.382869
