19
Iteration:  2912
 C         1.783658         2.533028         1.327649
 C         2.046311         0.998022         1.492012
 C         1.897480         0.249668         2.906725
 C         2.092697        -1.184194         2.129759
 O         0.771261        -1.216775         1.489863
 C         1.411493        -0.235480         0.618515
 C         0.694591        -0.017877        -0.748389
 C         2.863175        -0.751105         0.926743
 O         3.363198         0.605329         1.068418
 H         0.748950         2.669043         1.537417
 H         2.487165         3.105017         1.933111
 H         1.889872         2.852385         0.261236
 H         2.715281         0.708939         3.578086
 H         0.993965         0.115399         3.412508
 H         2.379903        -2.089831         2.679344
 H         0.365103         1.098504        -0.846788
 H         1.079489        -0.441069        -1.688248
 H        -0.237105        -0.493144        -0.609725
 H         3.535544        -1.407289         0.314455
