19
Iteration:  4177charge 0 multiplicity 1
 C         1.522091         2.403527         1.486726
 C         1.980436         0.936638         1.489501
 C         1.616934         0.126167         2.887240
 C         1.968094        -1.182019         2.155671
 O         0.894434        -1.267053         1.147913
 C         1.570157        -0.225412         0.506692
 C         0.919121         0.016457        -0.867707
 C         3.091475        -0.578854         1.021261
 O         3.396635         0.730231         1.361831
 H         0.732237         2.471516         2.303964
 H         2.374958         3.026594         1.810938
 H         1.143367         2.746493         0.459963
 H         2.167526         0.857086         3.555479
 H         0.572365         0.201134         3.022823
 H         2.002052        -2.095610         2.813344
 H         0.276596        -0.867897        -0.983734
 H         0.240644         0.877897        -0.884760
 H         1.541587         0.155682        -1.718119
 H         3.863895        -1.300805         0.647729
