19
Iteration:  2873
 C         1.739897         2.375738         1.339093
 C         2.042950         0.975164         1.449527
 C         2.016080         0.338345         2.841511
 C         2.069019        -1.117402         2.267636
 O         0.749966        -1.284393         1.499900
 C         1.407721        -0.187377         0.566545
 C         0.716376         0.135948        -0.665016
 C         2.827100        -0.807373         0.957753
 O         3.367451         0.551604         0.967781
 H         0.760768         2.430938         0.697830
 H         1.311130         2.831359         2.263436
 H         2.501967         2.972054         0.850855
 H         2.855387         0.775456         3.300149
 H         1.094781         0.538838         3.515153
 H         2.246280        -2.046348         2.823770
 H        -0.185243         0.655995        -0.534761
 H         1.319795         0.862733        -1.237699
 H         0.677146        -0.868617        -1.207341
 H         3.292290        -1.549940         0.298448
