19
Iteration:  3258
 C         1.476214         2.438816         1.581391
 C         1.838193         0.972247         1.498441
 C         1.628387         0.108794         2.802345
 C         2.084995        -1.147721         2.235406
 O         0.978918        -1.310519         1.230731
 C         1.602720        -0.135404         0.414749
 C         0.893875        -0.094290        -0.886895
 C         3.024607        -0.536591         0.953851
 O         3.403218         0.753247         1.323837
 H         1.666770         3.010114         2.494025
 H         1.921835         2.949783         0.702382
 H         0.345395         2.417460         1.441990
 H         2.313287         0.487570         3.675542
 H         0.638624         0.049829         3.214834
 H         2.210109        -2.053133         2.813976
 H         1.101247        -1.122781        -1.406277
 H        -0.178292        -0.176545        -0.659275
 H         1.153011         0.769373        -1.503290
 H         3.719499        -1.237932         0.496627
