19
Iteration:  1941
 C         2.401094         2.367868         0.873432
 C         2.317637         0.939902         1.240449
 C         2.495985         0.355775         2.663072
 C         2.003980        -1.070829         2.356284
 O         0.641150        -0.672412         1.991168
 C         1.210069        -0.075064         0.835397
 C         0.098996         0.151516        -0.252230
 C         2.357225        -1.046141         0.913526
 O         3.383898         0.006377         0.612838
 H         1.738519         2.795748         0.096992
 H         2.096183         3.048029         1.702256
 H         3.375647         2.430978         0.398464
 H         3.551507         0.643801         2.807486
 H         1.932689         0.892570         3.372465
 H         2.067773        -1.921533         2.992359
 H        -0.750701         0.386697         0.363620
 H         0.150876         0.891783        -0.968877
 H        -0.128989        -0.722154        -0.907810
 H         2.522413        -1.830414         0.263701
