19
Iteration:  2619charge 0 multiplicity 1
 C         2.053656         2.606637         1.265758
 C         2.156205         1.076509         1.496283
 C         2.129449         0.316256         2.852765
 C         2.045567        -1.140774         2.192643
 O         0.682558        -1.132683         1.642438
 C         1.277634        -0.209744         0.681486
 C         0.480169        -0.110901        -0.622899
 C         2.708807        -0.837779         0.810462
 O         3.390828         0.441068         0.901738
 H         1.053412         2.682982         0.854852
 H         2.159537         3.148189         2.183149
 H         2.661946         2.865017         0.359974
 H         3.106121         0.563821         3.324279
 H         1.310651         0.535598         3.451886
 H         2.202066        -2.013437         2.875126
 H        -0.531991        -0.301343        -0.213656
 H         0.408344         0.925332        -1.021900
 H         0.728379        -0.696007        -1.397621
 H         3.089332        -1.608297         0.099342
