19
Iteration:  1501
 C         2.563212         2.355590         0.859502
 C         2.430347         0.885413         1.125807
 C         2.677695         0.418360         2.600004
 C         1.941561        -0.922592         2.450439
 O         0.613407        -0.564158         2.144175
 C         1.125199        -0.067791         0.896408
 C         0.040250         0.178740        -0.115115
 C         2.271239        -1.131799         0.845959
 O         3.252166        -0.171281         0.375498
 H         2.033570         2.806261         1.699261
 H         3.604090         2.610353         0.930685
 H         2.160412         2.735546        -0.132199
 H         3.671529         0.276767         2.958616
 H         2.014186         1.201528         3.266482
 H         2.064974        -1.668418         3.182426
 H        -0.900315        -0.330436         0.072481
 H        -0.239290         1.315282        -0.135378
 H         0.444299        -0.161026        -1.093172
 H         2.273464        -2.175635         0.316010
