19
Iteration:  2588charge 0 multiplicity 1
 C         2.013112         2.421917         1.298354
 C         2.120203         0.924015         1.374411
 C         2.064497         0.397135         2.828986
 C         2.046433        -1.089025         2.256677
 O         0.719698        -1.067490         1.675650
 C         1.282035        -0.199124         0.633737
 C         0.383664         0.042038        -0.590860
 C         2.863744        -0.879044         0.841897
 O         3.423409         0.425778         0.845821
 H         1.312515         2.657345         0.555759
 H         1.756230         2.904771         2.270603
 H         3.012485         2.843306         1.030280
 H         2.998511         0.808822         3.321482
 H         1.202183         0.675108         3.349856
 H         2.114353        -1.910368         3.004031
 H        -0.314205        -0.852698        -0.609789
 H        -0.244618         0.962638        -0.428486
 H         0.867807        -0.040553        -1.543429
 H         3.302915        -1.758047         0.322308
