19
Iteration:  4276charge 0 multiplicity 1
 C         1.337166         2.304072         1.511212
 C         1.926579         0.967697         1.516329
 C         1.798671         0.216472         2.853469
 C         2.013844        -1.127866         2.160747
 O         0.919871        -1.261525         1.223229
 C         1.599491        -0.207439         0.446052
 C         0.945503         0.121540        -0.870529
 C         2.988971        -0.656274         1.019623
 O         3.429332         0.694897         1.351551
 H         0.267675         1.939538         1.222435
 H         1.225918         3.088363         2.267686
 H         1.622392         2.659291         0.492704
 H         2.522970         0.272604         3.714483
 H         0.758759         0.123556         3.112766
 H         2.211795        -2.086280         2.610621
 H         0.224355         0.879862        -0.659837
 H         1.740959         0.396489        -1.516906
 H         0.408258        -0.740343        -1.318910
 H         3.701481        -1.438023         0.576430
