19
Iteration:  1653charge 0 multiplicity 1
 C         2.620344         2.355768         0.762014
 C         2.306729         0.856631         1.213353
 C         2.623028         0.337969         2.672157
 C         2.011394        -1.018678         2.365604
 O         0.612148        -0.568034         2.271052
 C         1.097916        -0.038243         0.910784
 C         0.059839         0.196028        -0.192300
 C         2.333067        -1.051055         0.872223
 O         3.216576        -0.085533         0.352292
 H         1.821795         3.077042         1.091295
 H         3.523625         2.698001         1.243945
 H         2.559096         2.329388        -0.341488
 H         3.623803         0.441233         2.810725
 H         2.137768         0.900371         3.545657
 H         2.182245        -1.903038         2.986828
 H        -0.885023         0.692037         0.045530
 H         0.733739         0.762836        -0.914044
 H        -0.372074        -0.647020        -0.760329
 H         2.353345        -2.116703         0.416538
