19
Iteration:  2153charge 0 multiplicity 1
 C         2.340440         2.464841         1.087408
 C         2.322255         0.981679         1.291247
 C         2.495646         0.404809         2.788242
 C         2.001989        -0.999513         2.371244
 O         0.598699        -0.783031         1.917935
 C         1.211033        -0.182817         0.744855
 C         0.110037        -0.013136        -0.425171
 C         2.451215        -0.981624         0.800213
 O         3.399641         0.104302         0.581743
 H         2.486589         2.959237         2.058970
 H         3.030866         2.880365         0.391238
 H         1.261696         2.690602         0.773464
 H         3.531236         0.502046         3.062968
 H         1.937222         0.886978         3.610996
 H         2.064975        -1.818544         3.087498
 H        -0.680496        -0.695931        -0.104123
 H        -0.229761         1.038832        -0.306571
 H         0.440003        -0.290872        -1.388831
 H         2.569989        -1.945974         0.256132
