19
Iteration:  2316charge 0 multiplicity 1
 C         2.237536         2.411105         1.088624
 C         2.204521         0.924050         1.384955
 C         2.360587         0.337819         2.880806
 C         2.045050        -1.032139         2.352858
 O         0.681585        -0.928051         1.891685
 C         1.180251        -0.136335         0.712511
 C         0.360773         0.032024        -0.535924
 C         2.533905        -0.875423         0.844868
 O         3.279003         0.284749         0.617511
 H         1.369388         2.663024         0.494540
 H         2.260509         2.953040         2.034157
 H         3.168688         2.651331         0.424216
 H         3.332291         0.511283         3.411643
 H         1.566264         0.528133         3.598256
 H         2.234168        -1.930544         2.949718
 H         0.738908        -0.593180        -1.344271
 H        -0.717291        -0.167185        -0.457056
 H         0.421260         0.978405        -0.938405
 H         2.756448        -1.793358         0.275870
