19
Iteration:  3315
 C         1.337249         2.375032         1.422296
 C         1.713321         0.911141         1.596812
 C         1.866155         0.153053         3.005660
 C         2.096209        -1.222279         2.153523
 O         0.965492        -1.313613         1.248499
 C         1.530300        -0.231343         0.502550
 C         1.222849         0.143904        -0.901185
 C         2.921890        -0.637576         0.988372
 O         3.197214         0.801414         1.226493
 H         2.234506         2.912681         1.085794
 H         0.586399         2.523275         0.574076
 H         0.823228         2.760653         2.298273
 H         2.792599         0.546984         3.468906
 H         0.890575        -0.021777         3.651043
 H         2.193514        -2.217247         2.639185
 H         0.577195        -0.693489        -1.309917
 H         0.824548         1.210991        -0.926246
 H         2.168377         0.130179        -1.508507
 H         3.627524        -1.416525         0.550347
