19
Iteration:  4945charge 0 multiplicity 1
 C         1.186193         2.314227         1.538357
 C         1.905429         0.934266         1.576619
 C         1.750802         0.027470         2.786585
 C         2.216073        -1.210327         2.052439
 O         1.087603        -1.295199         1.145464
 C         1.547486        -0.158398         0.557055
 C         0.775425         0.027110        -0.735466
 C         3.141754        -0.482648         0.991732
 O         3.342875         0.845776         1.296408
 H         0.102804         2.160431         1.480688
 H         1.382305         3.027344         2.367059
 H         1.686183         2.734099         0.581512
 H         2.437954         0.410382         3.576749
 H         0.746503        -0.086972         3.188554
 H         2.515511        -2.161974         2.516685
 H        -0.263692        -0.112538        -0.443477
 H         0.800925         1.026295        -1.199522
 H         1.098914        -0.744849        -1.483461
 H         3.924496        -1.033550         0.472303
