19
Iteration:  2147charge 0 multiplicity 1
 C         2.335250         2.487582         1.074747
 C         2.322266         0.973935         1.320413
 C         2.525351         0.427306         2.771323
 C         2.041538        -1.022560         2.389853
 O         0.593966        -0.776548         1.928233
 C         1.213068        -0.206995         0.776746
 C         0.062741        -0.006370        -0.452144
 C         2.464992        -0.973598         0.778597
 O         3.381862         0.090001         0.619833
 H         2.505249         2.926518         2.055431
 H         3.159369         2.904067         0.428781
 H         1.380240         2.610367         0.616334
 H         3.630296         0.540507         3.110593
 H         1.888238         0.885889         3.528679
 H         1.962544        -1.900740         3.052276
 H        -0.716413        -0.781996        -0.308788
 H        -0.485292         0.952390        -0.491185
 H         0.411672         0.012955        -1.572733
 H         2.645424        -1.879441         0.236436
