19
Iteration:  4710
 C         1.155700         2.366180         1.722888
 C         1.850836         0.987513         1.590348
 C         1.889076         0.052686         2.808906
 C         2.202482        -1.191080         2.083509
 O         0.977171        -1.243291         1.274312
 C         1.507449        -0.179085         0.412145
 C         1.046721        -0.126366        -0.926252
 C         3.005320        -0.520098         0.943406
 O         3.297470         0.853644         1.243963
 H        -0.007950         2.278764         1.564108
 H         1.169163         2.788163         2.764083
 H         1.658789         3.133566         1.095627
 H         2.694333         0.296426         3.513734
 H         0.950676         0.028995         3.375015
 H         2.296298        -2.157519         2.551552
 H         1.526080        -0.813986        -1.545650
 H        -0.038622        -0.304461        -0.990413
 H         1.279883         0.914676        -1.221010
 H         3.775132        -1.156602         0.314627
