19
Iteration:  2808
 C         1.811562         2.516048         1.399312
 C         2.074590         1.006850         1.439606
 C         2.071113         0.300471         2.887516
 C         2.000309        -1.124156         2.216235
 O         0.758896        -1.171913         1.545579
 C         1.387038        -0.195164         0.634940
 C         0.638437        -0.084749        -0.682128
 C         2.737658        -0.751846         0.829633
 O         3.406132         0.499198         0.947679
 H         2.279754         3.035407         0.486152
 H         0.723040         2.640440         1.095350
 H         2.032113         2.999360         2.367625
 H         2.986317         0.539811         3.393017
 H         1.122654         0.469425         3.526813
 H         2.236206        -1.991326         2.843351
 H         0.224201        -0.973301        -1.046760
 H        -0.060026         0.764016        -0.701681
 H         1.445326         0.181850        -1.439795
 H         3.301940        -1.473543         0.220318
