19
Iteration:   785charge 0 multiplicity 1
 C         2.609573         2.261566         0.765303
 C         2.359497         0.838137         1.136526
 C         2.634429         0.467475         2.664255
 C         2.075261        -0.960182         2.466634
 O         0.569537        -0.615496         2.237382
 C         1.102091        -0.141444         0.911892
 C         0.029114         0.315689        -0.158584
 C         2.260330        -1.105738         0.848491
 O         3.230681        -0.150504         0.333871
 H         2.284105         3.045632         1.560415
 H         3.692987         2.489215         0.651261
 H         2.319104         2.580479        -0.260113
 H         3.747254         0.575360         3.136502
 H         1.866515         1.151816         3.180239
 H         2.213036        -1.679689         3.258158
 H        -0.903578        -0.225674        -0.111424
 H        -0.123221         1.486215        -0.048839
 H         0.532117         0.180477        -1.171817
 H         2.288264        -2.026865         0.391514
