19
Iteration:   604
 C         2.475465         2.313563         0.876821
 C         2.426893         0.807372         1.171134
 C         2.733907         0.413933         2.613358
 C         1.980252        -0.921970         2.460374
 O         0.606253        -0.470804         2.169482
 C         1.162469        -0.061115         0.858731
 C         0.020468         0.242719        -0.180178
 C         2.232582        -1.132470         0.892121
 O         3.269152        -0.215621         0.340074
 H         1.513074         2.623075         1.134034
 H         3.286988         2.749799         1.508226
 H         2.723358         2.549454        -0.166538
 H         3.778762         0.406053         2.861845
 H         2.266457         1.071035         3.292107
 H         2.035538        -1.811588         3.201303
 H        -0.930689        -0.199979         0.126406
 H        -0.086539         1.238796        -0.130952
 H         0.392831        -0.030465        -1.198601
 H         2.199251        -2.121836         0.248123
