19
Iteration:  2338
 C         2.103236         2.503012         1.116235
 C         2.209605         1.006013         1.366739
 C         2.360486         0.389892         2.685968
 C         2.081644        -1.130628         2.289259
 O         0.601372        -0.934873         1.876765
 C         1.176997        -0.204672         0.756873
 C         0.467812         0.066288        -0.430884
 C         2.483923        -0.964420         0.781160
 O         3.363137         0.263645         0.768845
 H         1.115735         2.887172         0.957060
 H         2.728998         2.999117         1.870326
 H         2.688198         2.523651         0.093370
 H         3.433978         0.484796         3.093960
 H         1.745613         0.774377         3.472574
 H         2.269571        -1.948608         3.010039
 H         0.443509        -0.837592        -1.041621
 H        -0.593174         0.392593        -0.335531
 H         0.968524         0.746279        -1.021368
 H         2.731234        -1.829825         0.130998
