19
Iteration:   195
 C         2.621791         2.297152         0.698529
 C         2.266471         0.918905         1.233435
 C         2.677672         0.410625         2.629990
 C         2.052604        -0.970612         2.445078
 O         0.622841        -0.688689         2.198294
 C         1.106819        -0.143233         0.928120
 C         0.150821         0.417207        -0.119199
 C         2.220530        -1.165122         0.882708
 O         3.127143        -0.110737         0.355497
 H         2.000268         3.182625         0.953755
 H         3.700483         2.390757         0.939637
 H         2.555856         2.252830        -0.428504
 H         3.831766         0.349739         2.633943
 H         2.105841         1.119630         3.304094
 H         2.265838        -1.806897         3.136703
 H        -0.899331        -0.043206        -0.012957
 H         0.129146         1.691861         0.068075
 H         0.482552         0.085010        -1.102672
 H         2.226790        -2.180332         0.606679
