19
Iteration:  2865charge 0 multiplicity 1
 C         1.667386         2.453332         1.320883
 C         2.007634         0.936940         1.493897
 C         2.045888         0.288525         2.808870
 C         2.099136        -1.138881         2.280837
 O         0.702616        -1.226079         1.527784
 C         1.454603        -0.228193         0.565440
 C         0.743773         0.123815        -0.685161
 C         2.763548        -0.794239         0.930720
 O         3.416112         0.547478         0.978615
 H         0.968643         2.505269         0.384268
 H         1.288173         2.922518         2.253258
 H         2.520734         3.116620         0.945689
 H         3.026735         0.536784         3.324134
 H         1.165733         0.483710         3.494284
 H         2.353750        -1.993225         2.907882
 H        -0.310582         0.274412        -0.372321
 H         1.210693         0.981533        -1.194021
 H         0.782818        -0.688904        -1.479257
 H         3.289794        -1.541493         0.386602
