19
Iteration:  4364charge 0 multiplicity 1
 C         1.452169         2.462625         1.762225
 C         1.883620         1.027132         1.485982
 C         1.697563         0.098597         2.852322
 C         2.068095        -1.170190         2.095155
 O         0.914746        -1.302288         1.201491
 C         1.577052        -0.238751         0.493091
 C         1.063801        -0.177096        -0.907749
 C         2.959357        -0.546921         0.934527
 O         3.287340         0.847541         1.273099
 H         0.335256         2.480490         1.960407
 H         2.172085         2.957867         2.423501
 H         1.652904         2.953522         0.826546
 H         2.404814         0.389163         3.666939
 H         0.617043         0.170608         3.071261
 H         2.501246        -1.981291         2.608607
 H         1.747874         0.089722        -1.666365
 H         0.566726        -1.098786        -1.176689
 H         0.208115         0.533138        -1.019160
 H         3.724230        -1.235295         0.459580
