19
Iteration:  2299
 C         2.258143         2.518963         1.116807
 C         2.273541         0.915062         1.357159
 C         2.316649         0.365458         2.811587
 C         2.032113        -1.083684         2.358133
 O         0.612679        -0.908134         1.826106
 C         1.254296        -0.208950         0.794620
 C         0.289263         0.026849        -0.479791
 C         2.540338        -0.991116         0.847464
 O         3.334445         0.314827         0.604117
 H         1.776566         2.832507         0.158258
 H         1.742377         3.077904         1.939788
 H         3.253878         2.848254         0.932576
 H         3.329533         0.491347         3.242519
 H         1.516533         0.876648         3.408342
 H         2.159960        -1.970613         3.009606
 H         0.729429        -0.403230        -1.414894
 H        -0.556499        -0.640510        -0.252449
 H        -0.065482         1.137195        -0.531347
 H         2.960931        -1.829876         0.288970
