19
Iteration:  4366charge 0 multiplicity 1
 C         1.441175         2.456080         1.770926
 C         1.906159         1.017584         1.481641
 C         1.708335         0.094814         2.872732
 C         2.059849        -1.166043         2.088896
 O         0.908911        -1.290416         1.204684
 C         1.583349        -0.263767         0.476804
 C         1.056688        -0.172290        -0.917759
 C         2.957599        -0.543357         0.934396
 O         3.288459         0.855048         1.269241
 H         0.343459         2.484544         1.998915
 H         2.174246         2.984785         2.482954
 H         1.610062         2.994818         0.819244
 H         2.401584         0.434460         3.648036
 H         0.574815         0.159651         3.002928
 H         2.487497        -1.963005         2.648671
 H         1.811240         0.047932        -1.665302
 H         0.552123        -1.137004        -1.108887
 H         0.234895         0.546589        -1.056534
 H         3.678223        -1.215452         0.489513
