19
Iteration:   487
 C         2.678782         2.274512         0.802552
 C         2.421902         0.857515         1.134075
 C         2.629761         0.511126         2.581278
 C         2.034344        -0.890086         2.398934
 O         0.559822        -0.614195         2.095974
 C         1.070308        -0.112807         0.844490
 C        -0.060777         0.307166        -0.041670
 C         2.258078        -1.148454         0.842799
 O         3.324365        -0.237451         0.479834
 H         2.077938         2.870087         1.474356
 H         3.727472         2.612439         0.669450
 H         2.340346         2.638119        -0.210975
 H         3.605007         0.700344         3.018298
 H         2.021469         1.179021         3.312449
 H         2.199046        -1.684222         3.240349
 H        -0.607596        -0.575986        -0.551765
 H        -0.769087         0.670249         0.745939
 H         0.205545         1.165762        -0.709466
 H         2.235179        -2.110615         0.383617
