19
Iteration:   695charge 0 multiplicity 1
 C         2.555808         2.351064         0.805833
 C         2.423739         0.851141         1.135426
 C         2.557475         0.463717         2.570186
 C         2.025283        -0.896796         2.400193
 O         0.626326        -0.554080         2.157816
 C         1.115445        -0.009150         0.887969
 C         0.030340         0.279953        -0.060844
 C         2.284634        -1.148990         0.845564
 O         3.303912        -0.335074         0.438936
 H         2.399803         2.877464         1.802093
 H         3.537781         2.501716         0.393982
 H         1.877783         2.647809        -0.009626
 H         3.605143         0.523123         2.835331
 H         1.905739         1.158696         3.287371
 H         2.261713        -1.742649         3.019874
 H        -0.246078        -0.544885        -0.735536
 H        -0.979614         0.625661         0.304858
 H         0.307947         1.078421        -0.670475
 H         2.106858        -2.160687         0.551330
