19
Iteration:  2768charge 0 multiplicity 1
 C         1.953934         2.410330         1.351369
 C         2.059751         0.947764         1.436405
 C         1.936795         0.346057         2.872558
 C         2.019504        -1.112547         2.318324
 O         0.802863        -1.201772         1.553489
 C         1.339887        -0.211440         0.577820
 C         0.568451        -0.019589        -0.636287
 C         2.786608        -0.751914         0.827056
 O         3.390203         0.566402         0.905833
 H         3.019803         2.736357         1.234634
 H         1.341750         2.739060         0.526917
 H         1.408159         2.785304         2.199328
 H         2.891779         0.701152         3.336952
 H         1.068199         0.656971         3.523288
 H         2.421012        -2.045721         2.737208
 H         1.112479        -0.505544        -1.499342
 H        -0.495976        -0.304391        -0.455276
 H         0.516993         1.109964        -0.893004
 H         3.226921        -1.573246         0.308625
