19
Iteration:   344
 C         2.579573         2.293305         0.644895
 C         2.430452         0.911573         1.251365
 C         2.710616         0.395119         2.689776
 C         1.953557        -0.985729         2.437598
 O         0.579968        -0.563335         2.062885
 C         1.121040        -0.101286         0.879716
 C        -0.023522         0.284758        -0.046380
 C         2.263666        -1.088169         0.831847
 O         3.282770        -0.174928         0.477919
 H         2.214858         3.177260         1.280902
 H         3.685853         2.586537         0.540593
 H         2.171745         2.379755        -0.380166
 H         3.801131         0.315310         2.921701
 H         2.260978         0.945548         3.485257
 H         2.009465        -1.788755         3.195525
 H        -0.723237        -0.564789        -0.235743
 H        -0.585184         1.059845         0.340051
 H         0.277934         0.706789        -1.072698
 H         2.226665        -2.086775         0.346758
