19
Iteration:   105charge 0 multiplicity 1
 C         2.642853         2.203643         0.775570
 C         2.412447         0.818617         1.198994
 C         2.739830         0.406460         2.648154
 C         2.080236        -0.947556         2.447972
 O         0.593405        -0.502527         2.250550
 C         1.032901         0.016142         0.930001
 C         0.076771         0.219179        -0.191143
 C         2.164467        -1.030643         0.825353
 O         3.168048        -0.199395         0.347952
 H         2.017918         2.801920         1.466843
 H         3.630464         2.602908         0.861261
 H         2.262704         2.357402        -0.257858
 H         3.869127         0.499280         2.870398
 H         2.172637         1.048934         3.292217
 H         2.276751        -1.778669         3.078527
 H         0.006594        -0.686911        -0.840010
 H        -1.039492         0.495754         0.216569
 H         0.264804         1.129074        -0.932304
 H         2.126536        -2.033072         0.393138
