19
Iteration:  3219charge 0 multiplicity 1
 C         1.499530         2.459212         1.398616
 C         1.844599         1.003033         1.669053
 C         1.741551         0.098298         2.950441
 C         2.076146        -1.148864         2.211496
 O         0.995101        -1.390034         1.253658
 C         1.509934        -0.284704         0.518888
 C         0.948833         0.060442        -0.918854
 C         2.930372        -0.591042         0.942944
 O         3.320358         0.785796         1.219258
 H         0.922817         2.955864         2.209376
 H         2.426685         3.090998         1.364722
 H         0.980957         2.443033         0.465887
 H         2.442181         0.547087         3.547179
 H         0.737084        -0.145825         3.478190
 H         2.330188        -2.058793         2.810326
 H         1.627812        -0.229272        -1.676269
 H         0.044906        -0.574386        -1.062456
 H         0.642580         1.094693        -1.090451
 H         3.771151        -1.171249         0.455130
