19
Iteration:  3015
 C         1.518967         2.477733         1.345950
 C         2.017391         0.974196         1.488794
 C         1.941011         0.168077         2.875488
 C         2.069731        -1.231392         2.218339
 O         0.797295        -1.204627         1.424121
 C         1.471660        -0.223156         0.626298
 C         0.831836         0.057040        -0.787995
 C         2.883110        -0.736767         0.986470
 O         3.361529         0.660890         1.070457
 H         2.355502         3.159806         1.682344
 H         1.488612         2.757352         0.309951
 H         0.547963         2.594379         1.729238
 H         2.893643         0.513327         3.268218
 H         1.214310         0.304625         3.773137
 H         2.189588        -2.137387         2.834539
 H         1.017704        -0.759776        -1.469618
 H        -0.284210         0.262108        -0.894030
 H         1.306651         1.039472        -1.291061
 H         3.505376        -1.423671         0.444319
