19
Iteration:  2029charge 0 multiplicity 1
 C         2.283323         2.342908         0.921148
 C         2.433397         0.881366         1.257323
 C         2.597723         0.352935         2.785971
 C         1.995952        -0.988758         2.436027
 O         0.523501        -0.729742         2.011829
 C         1.174212        -0.080305         0.795381
 C         0.187825         0.126752        -0.346460
 C         2.419072        -1.048231         0.841235
 O         3.355265         0.116872         0.462490
 H         1.222784         2.756100         0.709356
 H         2.413925         2.991383         1.903689
 H         3.068480         2.616493         0.213729
 H         3.593060         0.548911         3.277487
 H         1.815382         0.808608         3.495063
 H         2.054895        -1.950885         2.952379
 H         0.516820         0.766343        -1.161120
 H        -0.138109        -0.844685        -0.648820
 H        -0.620058         0.521152         0.357885
 H         2.489846        -2.008581         0.356330
