19
Iteration:   466charge 0 multiplicity 1
 C         2.613250         2.294300         0.783066
 C         2.479255         0.832590         1.108577
 C         2.529348         0.418637         2.562003
 C         1.949005        -0.981488         2.427860
 O         0.639459        -0.507495         2.192508
 C         1.141560        -0.030981         0.869100
 C         0.038758         0.256842        -0.014329
 C         2.234481        -1.124806         0.846648
 O         3.283287        -0.199689         0.392889
 H         1.835916         2.896536         1.295780
 H         3.630901         2.674490         1.027924
 H         2.614850         2.721983        -0.248447
 H         3.533249         0.493203         2.998135
 H         1.911301         1.109590         3.264158
 H         2.046321        -1.892199         3.095052
 H        -0.323407        -0.748364        -0.425918
 H        -0.844179         0.705709         0.499463
 H         0.333064         0.842794        -0.873302
 H         2.242169        -2.036355         0.343309
