19
Iteration:   464charge 0 multiplicity 1
 C         2.614195         2.300190         0.784113
 C         2.466615         0.831110         1.106789
 C         2.550370         0.416301         2.587269
 C         1.948673        -0.986864         2.426143
 O         0.643338        -0.503928         2.183516
 C         1.139350        -0.029720         0.881717
 C         0.028465         0.253774        -0.033004
 C         2.229478        -1.128041         0.856633
 O         3.274394        -0.185473         0.391014
 H         1.873878         2.824534         1.253653
 H         3.602186         2.710175         1.048912
 H         2.625504         2.637760        -0.265118
 H         3.559585         0.520177         2.992355
 H         1.981549         1.095870         3.238448
 H         2.036252        -1.920206         3.105574
 H        -0.337294        -0.786663        -0.402994
 H        -0.792100         0.705662         0.482466
 H         0.386794         0.889357        -0.930493
 H         2.224873        -2.092137         0.307293
