19
Iteration:  1086
 C         2.598460         2.352191         0.852781
 C         2.368663         0.877970         1.149939
 C         2.684211         0.451001         2.506532
 C         2.068498        -0.958779         2.408715
 O         0.579653        -0.639735         2.214215
 C         1.104367        -0.065648         0.904031
 C         0.091872         0.291437        -0.124168
 C         2.201631        -1.118651         0.896456
 O         3.184688        -0.204246         0.377306
 H         1.797864         2.996930         1.270350
 H         3.471478         2.668140         1.336494
 H         2.888394         2.523782        -0.170640
 H         3.734970         0.514442         2.620686
 H         2.116281         1.074949         3.357298
 H         2.267027        -1.701593         3.256931
 H        -0.744169        -0.413029        -0.271879
 H        -0.370998         1.298789        -0.121780
 H         0.572135         0.301296        -1.104486
 H         2.188167        -2.284219         0.570597
