19
Iteration:   107
 C         2.639419         2.211510         0.778004
 C         2.417188         0.818829         1.207563
 C         2.744264         0.390194         2.621337
 C         2.062740        -0.952479         2.443094
 O         0.591055        -0.493204         2.260597
 C         1.035642         0.016919         0.919220
 C         0.065380         0.214388        -0.201950
 C         2.171906        -1.048477         0.829673
 O         3.177494        -0.189156         0.356942
 H         2.038092         2.855022         1.504667
 H         3.651608         2.666223         0.848595
 H         2.236957         2.330424        -0.297145
 H         3.905245         0.504202         2.851718
 H         2.184778         1.032479         3.341348
 H         2.241812        -1.749615         3.106916
 H        -0.015906        -0.693739        -0.805556
 H        -1.026245         0.499049         0.225753
 H         0.263350         1.084163        -0.868923
 H         2.150225        -1.985546         0.391569
