19
Iteration:  3668charge 0 multiplicity 1
 C         1.305666         2.329636         1.399633
 C         1.899004         0.930148         1.542980
 C         1.790658         0.149630         2.907804
 C         1.987892        -1.131731         2.271417
 O         0.915106        -1.396984         1.221336
 C         1.605952        -0.320160         0.501710
 C         1.125835         0.316743        -0.820238
 C         2.981371        -0.699693         0.955356
 O         3.297116         0.764625         1.288974
 H         0.233630         2.217155         1.144407
 H         1.407920         3.104987         2.138605
 H         1.775681         2.717683         0.430083
 H         2.527600         0.631566         3.643210
 H         0.818454         0.225238         3.245411
 H         2.199211        -2.202638         2.615076
 H         1.375849        -0.446056        -1.620235
 H         0.132705         0.732732        -0.752857
 H         1.794919         1.107919        -1.081823
 H         3.566357        -1.430276         0.312064
