19
Iteration:  3731charge 0 multiplicity 1
 C         1.589235         2.567670         1.705550
 C         1.914636         1.038422         1.629172
 C         1.634474         0.093144         2.854287
 C         1.966278        -1.170836         2.063947
 O         0.974201        -1.324672         1.133782
 C         1.505542        -0.224089         0.429607
 C         0.971102        -0.216294        -0.992571
 C         2.999867        -0.483260         0.948404
 O         3.308570         0.773335         1.406762
 H         0.574153         2.725352         2.105258
 H         2.439214         3.154940         2.085636
 H         1.572664         2.992506         0.627517
 H         2.157374         0.364643         3.832988
 H         0.577171        -0.065204         3.172381
 H         2.468933        -1.962198         2.682180
 H         1.178100        -1.237289        -1.372015
 H        -0.136698        -0.230090        -1.187521
 H         1.475011         0.484545        -1.623822
 H         3.779805        -1.214643         0.704523
