19
Iteration:  4675
 C         1.384888         2.327179         1.654346
 C         1.866699         0.982249         1.586915
 C         1.699011         0.092251         2.891276
 C         2.185845        -1.132879         2.100718
 O         1.140435        -1.469079         1.206352
 C         1.496989        -0.286745         0.502306
 C         0.966600         0.037390        -0.918508
 C         2.901525        -0.485451         0.965024
 O         3.231358         0.892695         1.221997
 H         0.370029         2.525159         1.174394
 H         1.449005         2.787169         2.640504
 H         1.995325         2.968669         0.918354
 H         2.503041         0.259328         3.680888
 H         0.670918         0.147040         3.183423
 H         2.631986        -1.839400         2.849246
 H         1.709312        -0.019218        -1.696858
 H         0.112656        -0.608883        -1.095731
 H         0.550448         1.070970        -0.848935
 H         3.628176        -1.037478         0.290646
