19
Iteration:  1649charge 0 multiplicity 1
 C         2.598827         2.332512         0.776580
 C         2.343213         0.840098         1.221947
 C         2.648717         0.332731         2.689826
 C         2.029892        -0.992838         2.413519
 O         0.580580        -0.578229         2.253724
 C         1.057112        -0.049040         0.895695
 C         0.049080         0.189341        -0.190398
 C         2.321409        -1.038848         0.845188
 O         3.234928        -0.078683         0.336675
 H         1.699951         3.045683         0.979114
 H         3.588883         2.810079         1.185206
 H         2.733619         2.284913        -0.322083
 H         3.800644         0.378304         2.879430
 H         2.128487         0.955255         3.446428
 H         2.085556        -1.850495         3.035973
 H        -0.873372         0.742300         0.219436
 H         0.618772         0.861646        -0.909727
 H        -0.176853        -0.677361        -0.848084
 H         2.330902        -1.971573         0.403705
