19
Iteration:  3711charge 0 multiplicity 1
 C         1.498922         2.420492         1.585943
 C         1.933417         0.982899         1.660495
 C         1.587094         0.134805         2.834779
 C         2.112642        -1.214437         2.131689
 O         0.905172        -1.249680         1.124204
 C         1.587105        -0.155578         0.447705
 C         0.994096        -0.173914        -0.953316
 C         2.939247        -0.596781         0.916684
 O         3.354708         0.822342         1.430084
 H         0.442285         2.562929         1.862206
 H         2.258109         2.962685         2.142912
 H         1.713695         2.873265         0.532329
 H         2.169901         0.443160         3.790959
 H         0.613500         0.081897         3.188579
 H         2.299118        -2.086485         2.889409
 H         1.115856        -1.112779        -1.598203
 H        -0.020982         0.127221        -0.762791
 H         1.174524         0.729309        -1.487467
 H         3.832417        -1.067075         0.422822
