19
Iteration:  2923
 C         1.758214         2.452322         1.316323
 C         2.009858         0.976888         1.509316
 C         1.965607         0.237018         2.859833
 C         2.061839        -1.168025         2.204196
 O         0.835089        -1.201419         1.429274
 C         1.380054        -0.148395         0.552403
 C         0.643654        -0.053563        -0.712348
 C         2.836409        -0.702345         0.890952
 O         3.365066         0.613360         1.139330
 H         0.986343         2.860792         1.909029
 H         2.640205         2.945935         1.765171
 H         1.712534         2.793078         0.264871
 H         2.821537         0.369062         3.589575
 H         1.028156         0.444490         3.292680
 H         2.224368        -2.118202         2.736376
 H         0.666282         0.984568        -1.219418
 H         1.203672        -0.710343        -1.399534
 H        -0.332989        -0.427128        -0.553690
 H         3.559257        -1.417440         0.407837
