19
Iteration:  2286charge 0 multiplicity 1
 C         2.260940         2.481136         1.122100
 C         2.216848         1.026736         1.322611
 C         2.347523         0.419909         2.723512
 C         1.959234        -1.039042         2.298783
 O         0.608006        -0.936924         1.865345
 C         1.216716        -0.190182         0.677300
 C         0.309673        -0.017379        -0.344309
 C         2.612646        -0.916772         0.790299
 O         3.377466         0.178010         0.694461
 H         1.941467         2.655230         0.106997
 H         1.507253         2.931797         1.804279
 H         3.209372         2.933381         1.481611
 H         3.383584         0.650031         3.158846
 H         1.623419         0.654025         3.419184
 H         2.119624        -1.895230         3.002170
 H         0.783822         0.055459        -1.294472
 H        -0.499348        -0.752417        -0.310493
 H        -0.176222         0.978670        -0.258421
 H         2.831268        -1.805861         0.184827
