19
Iteration:  2013charge 0 multiplicity 1
 C         2.394997         2.395955         1.001623
 C         2.332458         0.888147         1.279836
 C         2.514708         0.446923         2.662452
 C         2.021090        -1.015981         2.376327
 O         0.644019        -0.740497         2.043833
 C         1.139601        -0.156964         0.845685
 C         0.200141         0.105555        -0.330816
 C         2.357987        -1.002234         0.817597
 O         3.267622         0.053863         0.524791
 H         1.472720         2.732300         0.545019
 H         2.536062         3.049763         1.860073
 H         3.114733         2.632078         0.181135
 H         3.599135         0.346696         2.943356
 H         1.992609         0.943013         3.475463
 H         2.117993        -1.767056         3.172681
 H         0.628838         1.046847        -0.747632
 H         0.337135        -0.726580        -1.114068
 H        -0.891743         0.207092        -0.190026
 H         2.543030        -1.978985         0.284913
