19
Iteration:  4121
 C         1.515289         2.355090         1.347354
 C         1.877207         0.927615         1.598953
 C         1.792212         0.107964         2.883635
 C         1.967819        -1.186020         2.167019
 O         0.865125        -1.340968         1.315719
 C         1.506610        -0.301739         0.532454
 C         1.135816         0.228200        -0.872871
 C         2.936478        -0.617819         0.995835
 O         3.282394         0.752009         1.265251
 H         0.424970         2.546288         1.483742
 H         2.048757         3.101583         1.968046
 H         1.754051         2.669812         0.249874
 H         2.648179         0.467891         3.517216
 H         0.846844         0.211775         3.424557
 H         2.174617        -2.071405         2.880547
 H         1.526489        -0.362911        -1.693294
 H         0.036451         0.231970        -0.935682
 H         1.531331         1.184950        -1.009065
 H         3.449975        -1.280284         0.332853
