19
Iteration:  4859
 C         1.168444         2.286313         1.771947
 C         1.830712         0.974636         1.665576
 C         1.876048         0.136367         2.850582
 C         2.229783        -1.133958         2.126451
 O         1.047573        -1.382299         1.179820
 C         1.492620        -0.213037         0.499932
 C         1.001387        -0.066168        -0.976097
 C         3.039891        -0.482325         0.882343
 O         3.238801         0.895593         1.217175
 H         0.074439         2.223872         1.789448
 H         1.542213         2.789437         2.691749
 H         1.478894         3.054527         0.998620
 H         2.522769         0.585733         3.651142
 H         0.886439        -0.015598         3.307818
 H         2.481405        -2.068487         2.631205
 H         0.112390         0.533035        -1.238582
 H         1.881717         0.375993        -1.554025
 H         0.730724        -1.130287        -1.330079
 H         3.629376        -1.135081         0.185674
