19
Iteration:   640charge 0 multiplicity 1
 C         2.639310         2.236564         0.607315
 C         2.363413         0.907349         1.214852
 C         2.685390         0.354751         2.682030
 C         2.007220        -1.021255         2.407445
 O         0.592644        -0.655400         2.189663
 C         1.122655        -0.000206         0.948917
 C         0.060789         0.273327        -0.123425
 C         2.234963        -1.055029         0.838773
 O         3.208500        -0.052833         0.485471
 H         1.945990         3.076286         0.746501
 H         3.540407         2.709665         0.993609
 H         2.752112         2.093322        -0.491787
 H         3.755329         0.414068         2.743200
 H         2.067008         0.835243         3.562387
 H         2.116087        -1.916396         3.087681
 H        -0.746439        -0.526877        -0.137211
 H        -0.477860         1.267472         0.082608
 H         0.377784         0.356460        -1.147259
 H         2.053773        -1.887525         0.195635
