19
Iteration:  4020charge 0 multiplicity 1
 C         1.554804         2.411572         1.403446
 C         1.872049         1.017019         1.544205
 C         1.678255         0.091779         2.866232
 C         2.099988        -1.159081         2.157961
 O         0.935787        -1.424530         1.216246
 C         1.439307        -0.197376         0.576566
 C         0.969948         0.080620        -0.835628
 C         2.905869        -0.606117         0.969096
 O         3.417593         0.763342         1.320651
 H         0.561144         2.581637         0.945019
 H         1.577051         3.054254         2.338136
 H         2.262634         2.850136         0.689208
 H         2.207868         0.423406         3.718913
 H         0.606776        -0.122740         3.244661
 H         2.143206        -2.109868         2.727439
 H         0.587868        -0.766176        -1.317624
 H         0.192396         0.849493        -0.836182
 H         1.780762         0.629834        -1.378162
 H         3.771063        -1.034806         0.435479
