19
Iteration:  1882charge 0 multiplicity 1
 C         2.439183         2.396399         0.777667
 C         2.327358         0.833951         1.237903
 C         2.514337         0.452966         2.671114
 C         2.051304        -1.016165         2.354101
 O         0.611339        -0.760017         2.130416
 C         1.119339        -0.079917         0.902931
 C         0.241109         0.237059        -0.244598
 C         2.306158        -1.060713         0.837960
 O         3.261565        -0.030489         0.519274
 H         2.851767         2.550065        -0.212919
 H         1.555704         3.021643         0.897892
 H         3.017649         2.909214         1.589949
 H         3.577899         0.456970         2.903700
 H         1.809820         0.810418         3.466544
 H         2.168110        -1.762036         3.185910
 H        -0.318221        -0.663260        -0.458506
 H        -0.388989         1.101627         0.060149
 H         0.853852         0.454542        -1.081597
 H         2.487289        -1.962770         0.150814
