19
Iteration:  3102
 C         1.653720         2.432229         1.479433
 C         1.920648         0.964241         1.551085
 C         1.841075         0.268114         2.907387
 C         2.058615        -1.141993         2.192958
 O         0.936158        -1.407452         1.335780
 C         1.418095        -0.235370         0.533089
 C         0.858536        -0.008089        -0.855639
 C         2.878101        -0.597384         0.960828
 O         3.280998         0.735744         1.121288
 H         1.985126         2.876292         0.491490
 H         0.646538         2.763132         1.586493
 H         2.348122         2.818527         2.190287
 H         2.636460         0.600588         3.566098
 H         0.800332         0.168615         3.329976
 H         2.411660        -1.987274         2.792540
 H        -0.119322         0.440994        -0.725486
 H         1.579380         0.618019        -1.425134
 H         0.762409        -1.015276        -1.406145
 H         3.508650        -1.277825         0.394083
