19
Iteration:  1394charge 0 multiplicity 1
 C         2.614014         2.219358         0.863173
 C         2.367374         0.832067         1.144396
 C         2.729707         0.453525         2.569708
 C         1.978027        -0.876983         2.396758
 O         0.570368        -0.484559         2.151328
 C         1.095915        -0.145166         0.820961
 C        -0.013671         0.210876        -0.126725
 C         2.278738        -1.123416         0.914619
 O         3.245561        -0.117467         0.406640
 H         1.986851         2.819065         1.543125
 H         3.669816         2.312280         1.092095
 H         2.604407         2.535349        -0.257118
 H         3.804602         0.518482         2.697078
 H         2.244221         0.922068         3.369556
 H         1.990411        -1.602649         3.131684
 H        -0.157448        -0.591370        -0.765522
 H        -0.820543         0.282702         0.538147
 H         0.173699         1.233172        -0.432988
 H         2.411778        -2.200884         0.495915
