19
Iteration:  4615
 C         1.197461         2.260587         1.411807
 C         1.926081         0.907827         1.620756
 C         1.797444         0.129200         2.966513
 C         2.099772        -1.204494         2.089128
 O         1.019251        -1.348189         1.135931
 C         1.592770        -0.202949         0.503182
 C         0.860902         0.141143        -0.827037
 C         3.084964        -0.507277         0.947807
 O         3.368648         0.827649         1.362289
 H         0.233839         2.195264         1.877960
 H         1.742732         3.066141         1.920129
 H         1.346239         2.368567         0.392068
 H         2.424819         0.291667         3.816985
 H         0.744479         0.085959         3.366210
 H         2.279534        -2.058837         2.728902
 H         1.075423         1.071710        -1.441361
 H         1.127871        -0.641261        -1.603920
 H        -0.238320         0.101754        -0.684140
 H         3.939454        -0.995420         0.447201
