19
Iteration:    56
 C         2.629400         2.215215         0.626270
 C         2.384176         0.814267         1.135073
 C         2.736235         0.400227         2.642728
 C         2.008475        -0.924681         2.428952
 O         0.584956        -0.572338         2.188365
 C         1.001989        -0.119065         0.895404
 C        -0.040282         0.387138        -0.052151
 C         2.278776        -1.121333         0.881292
 O         3.261611        -0.119894         0.464535
 H         1.873996         2.949055         0.942365
 H         3.617957         2.474787         1.050029
 H         2.719512         2.367186        -0.454821
 H         3.770042         0.208592         2.578430
 H         2.398551         0.964146         3.537348
 H         2.142262        -1.779397         3.156063
 H        -0.213966        -0.271702        -0.906158
 H        -0.929410         0.610275         0.412286
 H         0.285444         1.298566        -0.499569
 H         2.368805        -2.132656         0.390865
