19
Iteration:  1902charge 0 multiplicity 1
 C         2.418278         2.345536         0.852162
 C         2.404225         0.895595         1.249832
 C         2.548717         0.462713         2.715815
 C         1.993356        -1.009669         2.473107
 O         0.587632        -0.782313         2.004239
 C         1.144810        -0.163753         0.793092
 C         0.161277         0.248818        -0.194230
 C         2.385894        -1.006709         0.892472
 O         3.288982        -0.006291         0.440967
 H         2.386549         2.289191        -0.257901
 H         1.543609         2.866783         1.261812
 H         3.293549         2.919339         1.201213
 H         3.542456         0.471531         3.131597
 H         1.774786         1.094211         3.349586
 H         2.133974        -1.881947         3.149868
 H        -0.800683        -0.328412        -0.019588
 H         0.023191         1.421377        -0.231585
 H         0.577022        -0.000366        -1.206238
 H         2.393162        -2.072135         0.447528
