19
Iteration:  2141
 C         2.340075         2.479117         1.057757
 C         2.354404         0.925354         1.351446
 C         2.557889         0.434904         2.730332
 C         2.063632        -1.034545         2.395655
 O         0.621047        -0.765698         1.944913
 C         1.117126        -0.166991         0.764192
 C         0.039371         0.014070        -0.474291
 C         2.507515        -0.987203         0.790363
 O         3.341382         0.088543         0.668433
 H         2.321415         3.067532         2.047590
 H         3.234924         2.693836         0.463730
 H         1.460968         2.861476         0.425383
 H         3.543672         0.500546         3.032823
 H         1.717206         0.857096         3.398960
 H         2.092132        -1.945979         3.007137
 H        -0.589397        -0.892954        -0.607994
 H        -0.734096         0.827495        -0.428166
 H         0.526373         0.209799        -1.379649
 H         2.844375        -1.883502         0.185078
