19
Iteration:  3725
 C         1.594169         2.508310         1.647309
 C         1.902836         1.060677         1.672508
 C         1.629011         0.092480         2.845771
 C         2.039696        -1.133449         2.076451
 O         0.932953        -1.312665         1.139088
 C         1.537474        -0.246695         0.402320
 C         0.963867        -0.189936        -0.999114
 C         2.963998        -0.463441         1.008625
 O         3.340100         0.769124         1.417744
 H         0.617667         2.667381         2.114807
 H         2.307323         3.121583         2.226986
 H         1.516504         2.861197         0.639909
 H         2.173443         0.335534         3.750004
 H         0.551882        -0.045563         2.986792
 H         2.336568        -2.122038         2.459535
 H         1.144816        -1.238550        -1.356198
 H        -0.123436        -0.301598        -0.948434
 H         1.457519         0.476922        -1.739662
 H         3.662887        -1.142407         0.450467
