19
Iteration:   745charge 0 multiplicity 1
 C         2.574911         2.312231         0.713243
 C         2.344961         0.907639         1.289442
 C         2.791352         0.324915         2.647123
 C         2.019084        -0.974715         2.477425
 O         0.521435        -0.494831         2.222200
 C         1.045226        -0.049400         0.945110
 C         0.193051         0.151727        -0.217353
 C         2.200603        -1.049238         0.833488
 O         3.179956        -0.106122         0.377921
 H         2.618992         2.940142         1.522917
 H         3.594648         2.238337         0.159988
 H         1.840763         2.660186        -0.036642
 H         3.929134         0.290620         2.577511
 H         2.477850         0.751361         3.519992
 H         2.105253        -1.877849         3.220287
 H        -0.335694        -0.772368        -0.589545
 H        -0.703368         0.728907        -0.107538
 H         0.604011         0.756155        -1.114761
 H         2.175298        -2.134671         0.332477
