19
Iteration:   189charge 0 multiplicity 1
 C         2.629203         2.329375         0.676049
 C         2.252985         0.891168         1.236959
 C         2.639894         0.444173         2.606399
 C         2.091775        -1.006367         2.397025
 O         0.597599        -0.663528         2.222442
 C         1.080547        -0.117296         0.948255
 C         0.148653         0.425133        -0.117593
 C         2.241950        -1.159466         0.900200
 O         3.153969        -0.162556         0.351313
 H         2.053674         3.174194         1.076269
 H         3.733986         2.401537         0.928427
 H         2.552381         2.457005        -0.393037
 H         3.670790         0.468330         2.786957
 H         2.063760         0.903065         3.446919
 H         2.406066        -1.758106         3.168904
 H        -0.795130        -0.006085         0.076193
 H         0.065259         1.393481         0.026492
 H         0.547841         0.140341        -1.096349
 H         2.214888        -2.206671         0.373157
