19
Iteration:  4018
 C         1.553166         2.406650         1.381108
 C         1.879370         1.017466         1.558900
 C         1.677817         0.089205         2.865643
 C         2.082853        -1.169059         2.173663
 O         0.947900        -1.431034         1.217139
 C         1.429179        -0.199116         0.567829
 C         0.975913         0.100730        -0.829697
 C         2.897866        -0.607327         0.969785
 O         3.415126         0.762826         1.315227
 H         0.526160         2.563787         0.953596
 H         1.619361         3.053322         2.301997
 H         2.211259         2.896685         0.700765
 H         2.209862         0.457414         3.747344
 H         0.623391        -0.152256         3.239957
 H         2.257344        -2.065362         2.772008
 H         0.550255        -0.766857        -1.380188
 H         0.199703         0.882016        -0.808901
 H         1.864328         0.680995        -1.337631
 H         3.762657        -1.084720         0.386056
