19
Iteration:  1351
 C         2.610679         2.220665         0.743525
 C         2.440004         0.878281         1.195854
 C         2.729804         0.395416         2.662441
 C         2.022563        -0.938044         2.346251
 O         0.582491        -0.583810         2.224243
 C         1.056054        -0.017546         0.937550
 C         0.072566         0.204126        -0.135785
 C         2.126513        -1.041083         0.846799
 O         3.238843        -0.104834         0.419114
 H         1.627428         2.696273         0.725714
 H         3.224860         2.805905         1.399729
 H         2.948575         2.294375        -0.377498
 H         3.896085         0.304441         2.854851
 H         2.349752         1.068419         3.364463
 H         2.276341        -1.746003         2.918035
 H        -0.115097        -0.786192        -0.593983
 H        -0.834708         0.608011         0.252247
 H         0.437288         0.877113        -1.013772
 H         1.915210        -2.086824         0.362979
