19
Iteration:  3534
 C         1.529048         2.490137         1.469873
 C         1.827513         1.030975         1.578389
 C         1.614940         0.104567         2.847880
 C         2.013653        -1.272366         2.170643
 O         1.000087        -1.453694         1.176795
 C         1.571758        -0.226520         0.507190
 C         1.129486         0.084274        -0.897945
 C         2.955385        -0.569387         1.012231
 O         3.226201         0.820764         1.343817
 H         0.635521         2.678246         2.130884
 H         2.365844         3.059744         1.939022
 H         1.325379         2.731626         0.430847
 H         2.397081         0.448392         3.464773
 H         0.620743         0.035526         3.421253
 H         2.274498        -2.164999         2.736853
 H         1.670391        -0.505870        -1.615345
 H         0.092527        -0.273782        -1.122565
 H         1.230275         1.124274        -1.266313
 H         3.647344        -1.265434         0.629910
