19
Iteration:  2391
 C         2.023278         2.410423         1.092747
 C         2.225687         0.929074         1.304449
 C         2.269745         0.361520         2.735399
 C         2.028422        -1.114892         2.293657
 O         0.659961        -0.938109         1.788830
 C         1.258937        -0.130462         0.719558
 C         0.398240         0.107538        -0.404095
 C         2.645497        -0.933920         0.841837
 O         3.423292         0.266932         0.783095
 H         1.773763         2.758082         2.069052
 H         2.989153         2.796347         0.904228
 H         1.172517         2.639875         0.439263
 H         3.231901         0.621416         3.280333
 H         1.450031         0.729294         3.394119
 H         2.057126        -1.921593         3.041272
 H        -0.683568         0.029584        -0.138492
 H         0.426117         1.179354        -0.773023
 H         0.581230        -0.427550        -1.297330
 H         3.052956        -1.782219         0.263116
