19
Iteration:  2434
 C         2.226736         2.356675         1.142412
 C         2.198161         0.982486         1.422176
 C         2.225898         0.349048         2.851493
 C         1.993685        -1.077092         2.320457
 O         0.671901        -1.058799         1.746355
 C         1.202187        -0.187390         0.736184
 C         0.372654         0.006312        -0.513272
 C         2.653885        -0.827892         0.807862
 O         3.320546         0.450831         0.733142
 H         2.615161         2.918031         1.980390
 H         2.789126         2.570880         0.272896
 H         1.208266         2.759830         1.033393
 H         3.229883         0.542663         3.280167
 H         1.473691         0.779922         3.546098
 H         2.297319        -2.029290         2.780155
 H        -0.200372         0.984615        -0.629559
 H         0.982555        -0.130489        -1.487895
 H        -0.263994        -0.871409        -0.436483
 H         3.082140        -1.582187         0.120806
