19
Iteration:  3583
 C         1.464654         2.529399         1.670894
 C         1.891909         1.003194         1.556007
 C         1.605850         0.123805         2.787681
 C         2.037343        -1.142815         2.122015
 O         0.940658        -1.350289         1.145594
 C         1.624564        -0.193915         0.450293
 C         1.047492        -0.170451        -0.957289
 C         3.041514        -0.551586         1.028903
 O         3.282352         0.778990         1.376769
 H         0.525180         2.607979         2.166551
 H         2.140378         2.864435         2.460795
 H         1.595163         3.093875         0.734744
 H         2.189972         0.523509         3.688639
 H         0.584099        -0.003690         2.993800
 H         2.213550        -2.149291         2.565715
 H         0.711218        -1.140781        -1.467336
 H         0.053394         0.274528        -0.864248
 H         1.551941         0.454350        -1.705554
 H         3.894230        -1.110599         0.503004
