19
Iteration:  3726
 C         1.593034         2.518749         1.655112
 C         1.905809         1.057533         1.664982
 C         1.635815         0.092905         2.849189
 C         2.023977        -1.139660         2.072860
 O         0.940057        -1.314475         1.138915
 C         1.531184        -0.245728         0.406594
 C         0.965201        -0.193691        -0.997580
 C         2.973695        -0.460221         1.000890
 O         3.334471         0.767043         1.416137
 H         0.608568         2.673553         2.107276
 H         2.340781         3.141037         2.202853
 H         1.526346         2.872151         0.669279
 H         2.149653         0.334552         3.740131
 H         0.522206        -0.065469         3.018946
 H         2.365193        -2.080284         2.481741
 H         1.129133        -1.224301        -1.348664
 H        -0.140006        -0.322538        -0.993269
 H         1.481019         0.485512        -1.739504
 H         3.666706        -1.163102         0.495408
