19
Iteration:  3985charge 0 multiplicity 1
 C         1.384439         2.302807         1.315889
 C         1.853128         0.892596         1.553286
 C         1.760527         0.177609         2.881495
 C         2.020039        -1.209354         2.216999
 O         0.894002        -1.330103         1.239885
 C         1.507422        -0.241835         0.511702
 C         1.091079         0.309256        -0.778720
 C         3.021391        -0.682728         1.026686
 O         3.333923         0.715683         1.236065
 H         0.290223         2.435731         1.577886
 H         2.033437         2.965456         1.954291
 H         1.551149         2.610238         0.309568
 H         2.498012         0.668339         3.550333
 H         0.806823        -0.161335         3.341281
 H         2.251065        -1.972767         2.909414
 H         0.898628        -0.401688        -1.623711
 H         0.165825         0.807447        -0.508544
 H         1.926899         1.040017        -1.073380
 H         3.856323        -1.305421         0.555467
