19
Iteration:  1532charge 0 multiplicity 1
 C         2.607181         2.273431         0.764514
 C         2.380242         0.901908         1.236187
 C         2.734020         0.334270         2.659683
 C         2.073901        -0.981909         2.343356
 O         0.623180        -0.503570         2.182158
 C         1.047672        -0.103314         0.924964
 C         0.046103         0.156991        -0.189415
 C         2.217946        -1.091506         0.849858
 O         3.153975        -0.036013         0.465820
 H         1.714327         2.837117         1.019710
 H         3.488928         2.640224         1.237057
 H         2.833150         2.310294        -0.260936
 H         3.736337         0.368304         2.896009
 H         2.146595         0.979424         3.401879
 H         2.213610        -1.735246         3.042986
 H        -1.007284        -0.008208         0.035633
 H         0.033908         1.176792        -0.666155
 H         0.369606        -0.325035        -1.088796
 H         2.315332        -2.048694         0.291252
