19
Iteration:  3073
 C         1.585694         2.545238         1.434876
 C         1.961119         0.978587         1.507134
 C         1.813329         0.198394         2.818243
 C         2.056927        -1.150668         2.198615
 O         0.879754        -1.345855         1.369548
 C         1.511685        -0.297405         0.524348
 C         0.786522         0.018130        -0.773822
 C         2.956598        -0.628510         0.967383
 O         3.353175         0.664631         1.120605
 H         2.460462         2.988330         0.933488
 H         0.644766         2.834603         0.913574
 H         1.767619         3.051803         2.451640
 H         2.641116         0.523634         3.619634
 H         0.892973        -0.046918         3.282937
 H         2.251321        -1.886731         2.970828
 H        -0.301810        -0.408990        -0.723646
 H         0.679061         1.108482        -0.820392
 H         1.226992        -0.417832        -1.675760
 H         3.533120        -1.375270         0.417361
