19
Iteration:  4210charge 0 multiplicity 1
 C         1.642213         2.565054         1.586835
 C         1.858073         0.992098         1.611368
 C         1.715660         0.119833         2.904630
 C         2.017198        -1.134482         2.183315
 O         0.899410        -1.427895         1.245604
 C         1.434329        -0.272978         0.488787
 C         1.133961        -0.053932        -1.009876
 C         2.890455        -0.579573         0.922457
 O         3.262356         0.767955         1.288696
 H         0.624342         2.759170         2.114101
 H         2.394842         3.083638         2.224076
 H         1.532995         3.038148         0.561923
 H         2.387969         0.656331         3.657729
 H         0.740307         0.123170         3.340100
 H         2.320980        -2.120412         2.589689
 H         0.252002        -0.678167        -1.214697
 H         0.880170         0.961472        -1.246733
 H         1.894188        -0.390324        -1.725531
 H         3.658928        -1.069123         0.240286
