19
Iteration:   793charge 0 multiplicity 1
 C         2.600486         2.283456         0.773830
 C         2.361395         0.814350         1.115510
 C         2.665274         0.495270         2.663835
 C         2.045890        -0.942541         2.462565
 O         0.597341        -0.585419         2.164532
 C         1.074461        -0.182830         0.852638
 C         0.040839         0.326594        -0.094090
 C         2.296799        -1.155078         0.886400
 O         3.230339        -0.134982         0.375098
 H         2.034101         3.115744         1.381909
 H         3.663405         2.295559         0.864093
 H         2.365792         2.428479        -0.283004
 H         3.640330         0.515557         3.008171
 H         1.982165         1.119906         3.355770
 H         2.129153        -1.705253         3.169154
 H        -0.924205        -0.067900         0.084542
 H        -0.116300         1.426206         0.014891
 H         0.209920         0.219600        -1.098792
 H         2.319372        -2.062409         0.279262
