19
Iteration:  1493charge 0 multiplicity 1
 C         2.589607         2.400808         0.852110
 C         2.471007         0.841501         1.080271
 C         2.692020         0.432465         2.555589
 C         1.994349        -0.909211         2.427592
 O         0.557001        -0.574843         2.113509
 C         1.082758        -0.086287         0.911424
 C         0.022750         0.198127        -0.106643
 C         2.280469        -1.161389         0.894688
 O         3.226363        -0.159480         0.427730
 H         2.113046         2.920900         1.692708
 H         3.618870         2.857438         0.809961
 H         1.917536         2.686003        -0.040188
 H         3.710615         0.280497         3.024942
 H         2.077870         0.840876         3.317073
 H         2.075605        -1.694707         3.237164
 H        -0.859804        -0.416909        -0.068851
 H        -0.072153         1.244230         0.066510
 H         0.492984         0.040364        -1.126012
 H         2.362817        -2.167273         0.381202
