19
Iteration:   436charge 0 multiplicity 1
 C         2.578556         2.253438         0.705704
 C         2.398914         0.898217         1.285534
 C         2.797840         0.310659         2.637554
 C         1.996930        -0.907694         2.436802
 O         0.575297        -0.551557         2.213385
 C         1.013658        -0.115432         0.915723
 C         0.080024         0.255116        -0.264512
 C         2.197898        -1.028909         0.833848
 O         3.168317        -0.104165         0.455890
 H         1.673730         3.043189         0.978348
 H         3.419412         2.745088         1.271235
 H         2.819218         1.985518        -0.396018
 H         3.848974        -0.042052         2.487163
 H         2.769831         0.981130         3.586151
 H         2.230218        -1.742059         3.052134
 H        -0.466505        -0.657274        -0.297529
 H        -0.552509         1.191322        -0.002948
 H         0.765386         0.444822        -1.035487
 H         2.384469        -2.002764         0.386255
