19
Iteration:  3897
 C         1.642576         2.499755         1.726604
 C         1.805351         0.962939         1.549873
 C         1.638016         0.131230         2.860977
 C         2.059101        -1.158357         2.187733
 O         0.953703        -1.362879         1.177705
 C         1.512648        -0.292053         0.493354
 C         1.062854        -0.101133        -0.988175
 C         2.906054        -0.535377         0.996294
 O         3.233389         0.814453         1.207838
 H         0.705520         3.008574         2.047108
 H         2.533651         2.770806         2.318009
 H         1.963191         3.044791         0.810573
 H         2.349635         0.665354         3.612656
 H         0.645651         0.007158         3.267686
 H         2.325372        -2.036013         2.739094
 H         1.196395        -1.003988        -1.666346
 H         0.013644         0.115768        -1.067280
 H         1.572311         0.736954        -1.505225
 H         3.757325        -1.178229         0.687877
