19
Iteration:   502charge 0 multiplicity 1
 C         2.674851         2.281873         0.674431
 C         2.428994         0.846308         1.159791
 C         2.655154         0.471139         2.654869
 C         1.973741        -0.969546         2.461761
 O         0.662357        -0.644822         2.085504
 C         1.087732        -0.143884         0.821699
 C        -0.111055         0.356583        -0.088222
 C         2.288789        -1.094795         0.913871
 O         3.216056        -0.118114         0.502657
 H         2.418789         3.034791         1.551137
 H         3.759985         2.305021         0.715478
 H         2.168275         2.342912        -0.287556
 H         3.750565         0.282384         2.659565
 H         2.120921         1.103438         3.392014
 H         2.028234        -1.764115         3.116618
 H        -0.483877        -0.442902        -0.643212
 H        -0.954091         0.876679         0.469586
 H         0.273935         1.045763        -0.785941
 H         2.451668        -2.115718         0.562582
