19
Iteration:  3640charge 0 multiplicity 1
 C         1.230411         2.284476         1.373772
 C         1.874442         0.931153         1.547394
 C         1.769850         0.047617         2.857016
 C         2.107587        -1.180491         2.193022
 O         0.842654        -1.295608         1.287433
 C         1.544852        -0.195619         0.597997
 C         1.208919         0.243117        -0.838522
 C         2.947066        -0.667146         1.024081
 O         3.369801         0.768566         1.241267
 H         0.208944         2.125283         0.995389
 H         1.357206         3.074132         2.145888
 H         1.791575         2.716901         0.570864
 H         2.407126         0.586335         3.518148
 H         0.735084         0.013456         3.344214
 H         2.396342        -2.146027         2.411611
 H         1.093346        -0.557717        -1.557800
 H         0.424161         1.052312        -0.886646
 H         2.121456         0.855254        -1.126350
 H         3.451299        -1.405097         0.413214
