19
Iteration:  3299charge 0 multiplicity 1
 C         1.327678         2.422433         1.479297
 C         1.841265         0.967434         1.536321
 C         1.762737         0.084583         2.840672
 C         2.040106        -1.215444         2.192728
 O         0.936268        -1.381405         1.241109
 C         1.554144        -0.231570         0.567583
 C         1.137633         0.052231        -0.889281
 C         2.937856        -0.544763         0.987130
 O         3.299556         0.788220         1.253802
 H         2.233029         3.019473         1.703938
 H         0.863267         2.727127         0.533798
 H         0.690014         2.764211         2.363988
 H         2.703624         0.371118         3.412057
 H         0.919489         0.235080         3.436039
 H         2.430628        -1.972624         2.907641
 H         0.573820        -0.767743        -1.356183
 H         0.501482         0.895728        -1.011820
 H         2.007091         0.233792        -1.507559
 H         3.666756        -0.996976         0.363309
