19
Iteration:  2757charge 0 multiplicity 1
 C         1.911798         2.462009         1.285424
 C         2.066163         0.960760         1.521199
 C         1.996829         0.310975         2.826741
 C         2.088167        -1.132121         2.267310
 O         0.799856        -1.181332         1.520032
 C         1.358816        -0.228641         0.680994
 C         0.536556         0.024710        -0.629510
 C         2.757935        -0.757376         0.828841
 O         3.377159         0.515876         0.935700
 H         2.893384         3.009385         1.474509
 H         1.706033         2.644958         0.254660
 H         1.310011         2.983554         2.009949
 H         2.889298         0.522206         3.461979
 H         1.010066         0.612345         3.322076
 H         1.986550        -1.934814         3.009453
 H         1.133978        -0.433706        -1.468757
 H        -0.313324        -0.715940        -0.658141
 H         0.227701         1.105435        -0.924289
 H         3.310520        -1.393163         0.192656
