19
Iteration:  2667charge 0 multiplicity 1
 C         1.806943         2.457562         1.318742
 C         2.118877         0.959443         1.415597
 C         2.199388         0.381390         2.851582
 C         2.053467        -1.110636         2.268178
 O         0.700127        -1.117985         1.699133
 C         1.320377        -0.227962         0.618620
 C         0.632061         0.109818        -0.636250
 C         2.700975        -0.843982         0.779175
 O         3.364107         0.397142         0.863883
 H         1.072225         2.891641         2.046154
 H         2.806935         2.866700         1.615800
 H         1.475753         2.655519         0.334794
 H         3.111540         0.747987         3.348025
 H         1.216079         0.710015         3.406237
 H         2.335997        -1.942974         2.892402
 H         0.127903         1.080943        -0.731339
 H         1.335887        -0.136688        -1.465569
 H        -0.048364        -0.854517        -0.818889
 H         3.130294        -1.755798         0.313926
