19
Iteration:  1433charge 0 multiplicity 1
 C         2.578860         2.356922         0.601469
 C         2.459440         0.904237         1.236190
 C         2.672774         0.379422         2.734076
 C         2.011597        -1.003108         2.339694
 O         0.550889        -0.611527         2.199696
 C         1.099639        -0.074897         0.919463
 C         0.150079         0.237133        -0.115198
 C         2.217129        -1.076478         0.888902
 O         3.203033        -0.149050         0.446300
 H         2.464125         3.261445         1.228612
 H         3.585807         2.382895         0.124888
 H         1.953453         2.439358        -0.261238
 H         3.761850         0.425491         3.099803
 H         1.840683         0.948273         3.423498
 H         2.180628        -1.890426         3.019757
 H        -0.257034        -0.390059        -0.993347
 H        -0.860355         0.545875         0.399373
 H         0.398585         1.196427        -0.602842
 H         2.163033        -1.997134         0.317506
