19
Iteration:   401
 C         2.522832         2.300836         0.787234
 C         2.416718         0.843845         1.207108
 C         2.635320         0.389856         2.683855
 C         2.065178        -0.957138         2.399035
 O         0.639016        -0.521480         2.227091
 C         1.115981        -0.055855         0.963574
 C         0.274680         0.293893        -0.165976
 C         2.156650        -1.114375         0.817797
 O         3.112789        -0.194654         0.321023
 H         1.442599         2.796690         0.972639
 H         3.513888         2.780423         1.155858
 H         2.581279         2.388749        -0.375894
 H         3.689389         0.366527         3.060796
 H         1.947492         1.062182         3.352171
 H         2.302758        -1.859219         3.071795
 H        -0.701192        -0.288051        -0.063988
 H        -0.150025         1.325226        -0.222343
 H         0.588160        -0.010293        -1.129595
 H         2.075760        -2.081371         0.439305
