19
Iteration:  3235
 C         1.500521         2.472722         1.459512
 C         1.912200         0.977846         1.558145
 C         1.767490         0.207860         2.866588
 C         2.098067        -1.215586         2.112657
 O         0.945556        -1.364629         1.157825
 C         1.529892        -0.266845         0.457024
 C         0.920749        -0.076667        -0.824220
 C         2.977013        -0.540874         1.034189
 O         3.246821         0.788676         1.347513
 H         1.209997         2.913954         2.455396
 H         2.412715         3.017757         1.144440
 H         0.573320         2.701212         0.829965
 H         2.595350         0.311177         3.709072
 H         0.834723         0.374427         3.303909
 H         2.443143        -2.048814         2.729429
 H         1.449140        -0.614519        -1.704567
 H        -0.049856        -0.557700        -0.789557
 H         0.906034         1.020022        -0.905118
 H         3.658927        -1.162493         0.509146
