19
Iteration:  4203
 C         1.564385         2.541847         1.591197
 C         1.897615         1.022667         1.570960
 C         1.682481         0.109847         2.875885
 C         2.029370        -1.161245         2.146680
 O         0.941173        -1.379138         1.235225
 C         1.511944        -0.247767         0.476346
 C         1.084404        -0.069702        -0.975131
 C         2.871873        -0.571161         0.935828
 O         3.255897         0.736480         1.316748
 H         0.784282         2.950574         2.227060
 H         2.532012         2.850207         2.069356
 H         1.601276         2.883759         0.599836
 H         2.449162         0.545767         3.506248
 H         0.650945         0.196754         3.339765
 H         2.299829        -1.923615         2.832982
 H         0.229370        -0.742706        -1.080534
 H         0.785906         0.985001        -1.164075
 H         1.829431        -0.166252        -1.846417
 H         3.557737        -1.352455         0.559685
