19
Iteration:  4823
 C         1.222890         2.445473         1.672780
 C         1.823014         0.985381         1.617017
 C         1.784203         0.026998         2.807767
 C         2.232725        -1.211997         2.015003
 O         1.069954        -1.329400         1.137714
 C         1.597813        -0.214388         0.509306
 C         0.861788        -0.167843        -0.855483
 C         3.114462        -0.478654         0.945228
 O         3.246966         0.918673         1.344229
 H         0.313761         2.645468         2.262048
 H         2.018346         3.149481         2.177551
 H         1.091897         2.711833         0.589198
 H         2.475362         0.215955         3.658270
 H         0.723013        -0.125828         3.022631
 H         2.192410        -2.186816         2.586122
 H        -0.269928        -0.220958        -0.708151
 H         1.115529         0.770220        -1.309518
 H         1.261403        -0.880503        -1.558956
 H         3.957415        -0.679266         0.365610
