19
Iteration:  3900
 C         1.629445         2.501777         1.725340
 C         1.820272         0.955820         1.539368
 C         1.673355         0.147919         2.838886
 C         2.060075        -1.175386         2.198290
 O         0.944688        -1.326625         1.167475
 C         1.483128        -0.320411         0.498147
 C         1.075164        -0.107007        -0.998047
 C         2.902957        -0.561278         1.000964
 O         3.223241         0.839627         1.226097
 H         0.731113         3.038147         2.143109
 H         2.575207         2.743849         2.322143
 H         1.922369         2.971472         0.807659
 H         2.307637         0.494661         3.614086
 H         0.613406         0.012500         3.241877
 H         2.371613        -2.026850         2.770132
 H         1.263066        -0.998559        -1.508915
 H         0.032871         0.093560        -1.057325
 H         1.531450         0.733118        -1.551052
 H         3.806091        -1.124463         0.617565
