19
Iteration:  2944charge 0 multiplicity 1
 C         1.743526         2.444381         1.396609
 C         2.004947         0.951644         1.561976
 C         1.914714         0.305346         2.934379
 C         2.003125        -1.136962         2.201723
 O         0.793466        -1.206102         1.372517
 C         1.419716        -0.206284         0.537640
 C         0.685563        -0.132639        -0.751252
 C         2.882365        -0.664452         0.847293
 O         3.441470         0.624853         1.100004
 H         1.200655         2.927193         2.235986
 H         2.646092         3.084031         1.309105
 H         1.067246         2.642682         0.492642
 H         2.943382         0.509960         3.442124
 H         1.185733         0.344970         3.680611
 H         2.091458        -2.050877         2.809638
 H         1.165222         0.662815        -1.438550
 H         0.428642        -1.030830        -1.279080
 H        -0.253422         0.233396        -0.396610
 H         3.502269        -1.314988         0.178910
