19
Iteration:  3693
 C         1.450966         2.392083         1.475736
 C         1.843905         0.954962         1.532907
 C         1.690754         0.095314         2.843412
 C         2.007356        -1.157808         2.137953
 O         0.961060        -1.287170         1.201151
 C         1.597159        -0.221138         0.476902
 C         1.001121         0.064152        -0.850311
 C         3.017132        -0.560421         1.042394
 O         3.341590         0.722787         1.347407
 H         0.370511         2.380532         1.654304
 H         1.857033         2.959728         2.320305
 H         1.635621         2.885711         0.548646
 H         2.379400         0.419990         3.618649
 H         0.625806         0.102498         3.155154
 H         2.064871        -2.171761         2.495247
 H         1.398266        -0.838347        -1.326259
 H        -0.102284         0.175980        -0.847491
 H         1.437490         0.903737        -1.457251
 H         3.778650        -1.150232         0.493177
