19
Iteration:  3064
 C         1.604059         2.467256         1.401992
 C         1.946363         0.988845         1.477028
 C         1.850913         0.172577         2.857184
 C         2.066847        -1.177147         2.197467
 O         0.901330        -1.313594         1.409528
 C         1.513600        -0.175028         0.530939
 C         0.727506         0.029043        -0.810443
 C         2.897743        -0.677516         0.977102
 O         3.426266         0.681272         1.137544
 H         2.426898         2.970143         0.930243
 H         0.638801         2.736880         0.863972
 H         1.297041         2.781734         2.453228
 H         2.451711         0.500932         3.752395
 H         0.815461         0.297367         3.146371
 H         2.289107        -2.085899         2.784166
 H        -0.210252        -0.602185        -0.827446
 H         0.410104         1.046098        -0.996279
 H         1.316723        -0.212051        -1.634250
 H         3.630022        -1.412281         0.536049
