19
Iteration:   376charge 0 multiplicity 1
 C         2.493640         2.249626         0.820278
 C         2.442214         0.785055         1.110709
 C         2.685532         0.443983         2.587715
 C         1.994609        -0.947069         2.497607
 O         0.604273        -0.530925         2.162737
 C         1.106873        -0.115250         0.855069
 C         0.031070         0.389068        -0.128923
 C         2.273959        -1.152390         0.870934
 O         3.285903        -0.184261         0.413989
 H         1.725767         2.656398         1.411984
 H         3.536614         2.470127         1.078062
 H         2.338872         2.622453        -0.168238
 H         3.746040         0.563626         2.865018
 H         2.099753         1.067075         3.188926
 H         2.156665        -1.670964         3.318282
 H        -0.924839        -0.136623        -0.079512
 H        -0.269585         1.350895         0.022547
 H         0.258301         0.270312        -1.254530
 H         2.326273        -2.155079         0.368249
