19
Iteration:  1255
 C         2.562946         2.269673         0.756806
 C         2.339808         0.836289         1.211853
 C         2.739431         0.315313         2.660654
 C         1.990843        -0.946258         2.391430
 O         0.554436        -0.483286         2.118775
 C         1.101207        -0.091544         0.949090
 C         0.045329         0.213328        -0.116467
 C         2.339832        -1.114840         0.827268
 O         3.213792        -0.045260         0.446445
 H         2.188462         2.997327         1.443188
 H         3.588859         2.492051         0.452189
 H         1.943999         2.553417        -0.082296
 H         3.930677         0.147586         2.814240
 H         2.362640         0.893566         3.465973
 H         1.975085        -1.795687         2.988076
 H        -0.908108        -0.243594         0.228715
 H        -0.064780         1.232527        -0.458685
 H         0.410494        -0.117857        -1.144573
 H         2.411949        -2.045310         0.425289
