19
Iteration:  4285
 C         1.302609         2.277831         1.376703
 C         1.986910         0.971772         1.574117
 C         1.719276         0.172060         2.879841
 C         2.050338        -1.191499         2.144610
 O         0.925000        -1.267401         1.201181
 C         1.648754        -0.220339         0.474084
 C         0.947708         0.182927        -0.809497
 C         2.979990        -0.623085         0.999382
 O         3.424679         0.672948         1.341481
 H         0.248486         1.990400         1.310033
 H         1.400819         2.878242         2.254413
 H         1.543443         2.867518         0.444699
 H         2.363573         0.589597         3.700721
 H         0.805076         0.220958         3.386624
 H         2.218105        -1.968639         2.923878
 H         0.307141         1.089031        -0.787280
 H         1.539778         0.350654        -1.697799
 H         0.249316        -0.607494        -1.033423
 H         3.699078        -1.295194         0.481594
