19
Iteration:   414
 C         2.531981         2.315488         0.681600
 C         2.397806         0.879772         1.186264
 C         2.764901         0.329741         2.598713
 C         2.003561        -1.049986         2.443727
 O         0.563639        -0.580630         2.265125
 C         1.111735         0.003323         0.971303
 C         0.220676         0.246799        -0.210380
 C         2.151330        -1.090136         0.892800
 O         3.137236        -0.099751         0.385931
 H         1.629215         3.072931         1.058610
 H         3.336077         2.846552         1.294101
 H         2.798890         2.355493        -0.441272
 H         3.854013         0.359435         2.783030
 H         2.200292         0.808443         3.516908
 H         2.092492        -1.829638         3.195682
 H        -0.635843        -0.448544        -0.185206
 H        -0.036934         1.390087        -0.265539
 H         0.896406         0.078122        -1.016386
 H         2.027920        -1.932342         0.219190
