19
Iteration:   839
 C         2.555800         2.244192         0.601096
 C         2.506409         0.869812         1.266619
 C         2.682064         0.382298         2.746692
 C         2.009733        -1.013501         2.349531
 O         0.647912        -0.540940         2.194604
 C         1.115756        -0.058326         0.895631
 C        -0.041441         0.293597        -0.084254
 C         2.176706        -1.052871         0.779619
 O         3.302983        -0.166512         0.466958
 H         1.413136         2.600927         0.541337
 H         3.025707         3.060923         1.178270
 H         2.886319         2.307707        -0.477056
 H         3.797435         0.389378         3.086868
 H         2.037374         0.917161         3.495449
 H         2.034152        -1.866858         3.048398
 H        -0.964756        -0.166662         0.161859
 H        -0.291226         1.424222        -0.159936
 H         0.172702         0.117526        -1.163650
 H         2.191732        -2.013948         0.389162
