19
Iteration:  3017charge 0 multiplicity 1
 C         1.508018         2.487831         1.339212
 C         2.014401         0.958127         1.490424
 C         1.930012         0.164773         2.877148
 C         2.055852        -1.242181         2.214834
 O         0.799822        -1.192987         1.426482
 C         1.475009        -0.216572         0.620418
 C         0.827647         0.062673        -0.782845
 C         2.895164        -0.735156         0.982568
 O         3.379195         0.661957         1.082066
 H         2.388949         3.148039         1.630593
 H         1.395732         2.777486         0.288309
 H         0.505170         2.673922         1.767316
 H         2.957192         0.533191         3.280315
 H         1.243842         0.271834         3.727801
 H         2.232482        -2.167858         2.763679
 H         0.943781        -0.839856        -1.435692
 H        -0.255469         0.266997        -0.846386
 H         1.341036         0.951664        -1.319777
 H         3.490784        -1.432580         0.447184
