19
Iteration:  3945charge 0 multiplicity 1
 C         1.338777         2.390092         1.558144
 C         1.892118         1.021283         1.670028
 C         1.826576         0.133378         2.904023
 C         2.057264        -1.149927         2.157363
 O         0.839392        -1.196216         1.173643
 C         1.610844        -0.125803         0.515085
 C         1.066514        -0.062538        -0.973941
 C         2.913421        -0.650112         0.962848
 O         3.406556         0.653965         1.281808
 H         0.439796         2.366502         2.202563
 H         2.060305         3.232096         1.809680
 H         0.950753         2.749779         0.597687
 H         2.468351         0.388650         3.687788
 H         0.723361         0.201454         3.241201
 H         2.020071        -2.063489         2.829317
 H         1.466833        -0.879805        -1.468653
 H         0.005044         0.092268        -1.264240
 H         1.594302         0.746132        -1.457097
 H         3.459297        -1.388694         0.350759
