19
Iteration:  1897charge 0 multiplicity 1
 C         2.434755         2.344360         0.853711
 C         2.370638         0.970965         1.214207
 C         2.505165         0.414997         2.692881
 C         1.980903        -0.991569         2.463536
 O         0.614915        -0.804771         2.025700
 C         1.152864        -0.095113         0.839930
 C         0.197356         0.255135        -0.182681
 C         2.388209        -1.058917         0.879747
 O         3.266234        -0.021593         0.449660
 H         2.517352         2.351720        -0.249839
 H         1.407215         2.709274         1.112885
 H         3.319936         2.865708         1.219401
 H         3.545131         0.480191         3.108206
 H         1.870125         0.991391         3.292874
 H         2.220753        -1.803743         3.135533
 H        -0.674313        -0.372079        -0.086055
 H        -0.119240         1.251868        -0.275199
 H         0.675905         0.140887        -1.184277
 H         2.350563        -2.038553         0.523359
