19
Iteration:  2057charge 0 multiplicity 1
 C         2.228021         2.376632         0.914995
 C         2.266205         0.879496         1.292455
 C         2.539948         0.395726         2.635571
 C         2.011815        -1.027036         2.349704
 O         0.677181        -0.730623         1.970241
 C         1.150228        -0.112289         0.804626
 C         0.152212         0.227314        -0.251473
 C         2.477166        -1.098723         0.774524
 O         3.381644         0.049554         0.681028
 H         1.295599         2.810421         0.721091
 H         2.543825         3.073340         1.669356
 H         2.860543         2.492978         0.016956
 H         3.597793         0.634180         2.941627
 H         1.941872         0.672057         3.450638
 H         1.970088        -1.853980         3.042482
 H         0.819845         0.070967        -1.105834
 H        -0.698889        -0.500640        -0.113384
 H        -0.179667         1.252640        -0.104351
 H         2.576444        -2.013401         0.156995
