19
Iteration:  4496charge 0 multiplicity 1
 C         1.370220         2.320650         1.513693
 C         1.913566         0.998695         1.562827
 C         1.650116         0.089878         2.884253
 C         2.100616        -1.181578         2.180183
 O         1.043860        -1.314917         1.120240
 C         1.649392        -0.242835         0.488851
 C         0.807358         0.075583        -0.864845
 C         3.091359        -0.532225         0.988006
 O         3.349990         0.805953         1.315134
 H         0.261110         2.217978         1.504940
 H         1.600565         3.057883         2.345122
 H         1.729054         2.778079         0.578302
 H         2.141633         0.445203         3.793733
 H         0.554306         0.021428         3.277282
 H         2.302802        -2.190383         2.495990
 H        -0.048334        -0.577821        -0.595221
 H         0.393839         1.083749        -1.118483
 H         1.366569        -0.512599        -1.638033
 H         4.003193        -1.070923         0.687657
