19
Iteration:   449charge 0 multiplicity 1
 C         2.613749         2.246248         0.758232
 C         2.415219         0.851664         1.224940
 C         2.781288         0.389144         2.699232
 C         2.031951        -0.953371         2.435137
 O         0.582624        -0.505812         2.145752
 C         1.086608        -0.068648         0.872378
 C         0.035469         0.222828        -0.168963
 C         2.217603        -1.095443         0.856266
 O         3.168150        -0.118411         0.415818
 H         1.688160         2.896846         0.973961
 H         3.520088         2.695821         1.167893
 H         2.687500         2.315323        -0.347807
 H         3.871939         0.337090         2.844222
 H         2.244587         0.850700         3.508725
 H         2.021518        -1.703284         3.161947
 H        -0.523386        -0.598675        -0.538208
 H        -0.721966         0.946623         0.234460
 H         0.400347         0.701147        -1.114960
 H         2.182894        -2.125106         0.340485
