19
Iteration:   709
 C         2.530768         2.293085         0.827676
 C         2.428926         0.847316         1.150575
 C         2.708046         0.448305         2.613633
 C         2.011939        -0.957366         2.432945
 O         0.575720        -0.444460         2.131944
 C         1.128773        -0.090971         0.872810
 C         0.050160         0.228761        -0.143504
 C         2.187460        -1.124456         0.862168
 O         3.297029        -0.254791         0.413964
 H         2.463144         2.990032         1.719517
 H         3.433199         2.651134         0.341751
 H         1.663224         2.595267         0.229248
 H         3.851954         0.444013         2.877897
 H         2.114314         0.985134         3.415502
 H         1.984916        -1.583332         3.264679
 H        -0.095599        -0.691930        -0.675769
 H        -0.827905         0.411614         0.619462
 H         0.243468         1.052331        -0.890525
 H         2.223189        -1.969454         0.303471
