19
Iteration:  4092charge 0 multiplicity 1
 C         1.510877         2.453582         1.607508
 C         1.937714         0.972885         1.528743
 C         1.750996         0.149513         2.862428
 C         2.037577        -1.163407         2.184620
 O         0.851827        -1.250152         1.282294
 C         1.503328        -0.245557         0.531174
 C         1.151305        -0.007273        -0.924131
 C         2.903093        -0.642753         0.930927
 O         3.280893         0.699742         1.181873
 H         0.451436         2.671600         1.321491
 H         1.462458         2.823930         2.632100
 H         2.002934         3.241494         1.106149
 H         2.417674         0.510353         3.687295
 H         0.795275         0.301214         3.314999
 H         2.284608        -2.014649         2.806748
 H         1.727567        -0.881405        -1.361382
 H         0.092960        -0.153393        -1.102790
 H         1.481777         0.998075        -1.350884
 H         3.203737        -1.453543         0.198252
