19
Iteration:  1366charge 0 multiplicity 1
 C         2.607696         2.384600         0.806645
 C         2.498478         0.847101         1.157087
 C         2.699806         0.409726         2.581768
 C         1.996043        -0.977270         2.444182
 O         0.607997        -0.554211         2.220060
 C         1.102286         0.009193         0.918700
 C         0.003337         0.177218        -0.175365
 C         2.209017        -1.083843         0.832283
 O         3.195429        -0.219481         0.385116
 H         1.630513         2.805400         1.024683
 H         3.465576         2.889278         1.343804
 H         2.969452         2.476035        -0.159683
 H         3.843768         0.480640         2.930089
 H         2.020042         1.064907         3.314236
 H         2.019522        -1.783847         3.294087
 H        -0.077617        -0.897627        -0.649738
 H        -1.010528         0.397844         0.308936
 H         0.279412         1.103756        -0.767806
 H         2.172985        -1.924350         0.233612
