19
Iteration:  4456charge 0 multiplicity 1
 C         1.333046         2.339397         1.331236
 C         1.860920         0.853547         1.595747
 C         1.709989         0.092179         2.912425
 C         2.202924        -1.183970         2.136635
 O         1.030369        -1.435084         1.219306
 C         1.475094        -0.203067         0.510446
 C         0.940137         0.249670        -0.792486
 C         3.055749        -0.560240         0.997208
 O         3.291140         0.768974         1.321589
 H         0.271759         2.348302         1.378154
 H         1.762027         3.148409         1.980382
 H         1.592351         2.823062         0.324794
 H         2.378090         0.558533         3.669224
 H         0.689322         0.054055         3.323149
 H         2.526134        -2.059326         2.778389
 H         0.591171        -0.583850        -1.437179
 H         0.173626         1.028939        -0.692248
 H         1.759407         0.718180        -1.288864
 H         3.765969        -0.996485         0.356429
