19
Iteration:  3023
 C         1.497984         2.486856         1.316931
 C         1.972428         0.950683         1.505371
 C         1.965198         0.167395         2.886603
 C         2.024703        -1.226965         2.209716
 O         0.805618        -1.176714         1.429705
 C         1.469646        -0.204057         0.574081
 C         0.834886         0.051419        -0.770207
 C         2.906358        -0.724365         0.954157
 O         3.415176         0.653827         1.115016
 H         2.316061         3.109529         1.621981
 H         1.226969         2.703813         0.266674
 H         0.630961         2.789654         1.906020
 H         2.872152         0.430473         3.325949
 H         1.091684         0.250639         3.610241
 H         2.295719        -2.208755         2.642714
 H         0.811677        -0.896554        -1.282399
 H        -0.233780         0.337419        -0.607511
 H         1.437932         0.734309        -1.363668
 H         3.546888        -1.452792         0.384965
