19
Iteration:  1399charge 0 multiplicity 1
 C         2.604872         2.187447         0.849728
 C         2.393561         0.799803         1.137277
 C         2.715099         0.433451         2.570353
 C         1.990297        -0.873070         2.399863
 O         0.555693        -0.516127         2.148641
 C         1.084151        -0.081303         0.848186
 C        -0.023013         0.219479        -0.131895
 C         2.317381        -1.115676         0.900915
 O         3.234161        -0.113113         0.444070
 H         2.107907         2.896722         1.516825
 H         3.711578         2.263967         1.037562
 H         2.392777         2.408969        -0.158757
 H         3.879452         0.544133         2.592150
 H         2.298921         1.250619         3.291145
 H         2.044633        -1.652777         3.247262
 H        -0.171737        -0.583192        -0.979605
 H        -0.907673         0.313019         0.592794
 H         0.176192         1.237111        -0.565220
 H         2.405410        -2.016831         0.387161
