19
Iteration:  4680
 C         1.379674         2.321825         1.657393
 C         1.849149         0.969447         1.590594
 C         1.741816         0.098003         2.897782
 C         2.168493        -1.130179         2.148541
 O         1.078044        -1.478561         1.207545
 C         1.517954        -0.233681         0.428172
 C         1.010114         0.013919        -0.878823
 C         2.938865        -0.479526         0.925772
 O         3.235015         0.915490         1.192858
 H         0.300844         2.572496         1.394341
 H         1.280530         2.685874         2.716716
 H         1.950614         3.007430         1.084731
 H         2.466763         0.337933         3.635446
 H         0.667155         0.109235         3.234146
 H         2.491824        -1.972801         2.739322
 H         1.755253        -0.233642        -1.680589
 H         0.124682        -0.656842        -0.957253
 H         0.625734         1.024868        -0.847489
 H         3.644479        -1.140120         0.370849
