19
Iteration:  4816charge 0 multiplicity 1
 C         1.237021         2.496839         1.652264
 C         1.827605         0.960887         1.634984
 C         1.763728         0.061039         2.826778
 C         2.258827        -1.289059         2.063571
 O         1.072148        -1.397556         1.112637
 C         1.547971        -0.212450         0.472231
 C         0.887309        -0.073254        -0.815437
 C         3.073857        -0.466474         0.936450
 O         3.260586         0.922877         1.329735
 H         0.297304         2.627265         2.147328
 H         2.112757         3.057697         1.892047
 H         1.022065         2.591485         0.549681
 H         2.305106         0.321450         3.787531
 H         0.704087        -0.166165         2.981939
 H         2.517888        -2.132522         2.742035
 H        -0.138888        -0.434592        -0.607226
 H         0.919571         0.977920        -1.259513
 H         1.330345        -0.801891        -1.599679
 H         4.041472        -0.728837         0.373065
