19
Iteration:  1999charge 0 multiplicity 1
 C         2.456660         2.460585         0.965482
 C         2.167399         0.998608         1.223710
 C         2.523849         0.380911         2.677928
 C         2.078124        -0.969716         2.378343
 O         0.628103        -0.772302         2.093668
 C         1.084913        -0.177019         0.829085
 C         0.296968         0.127050        -0.352704
 C         2.360562        -1.068664         0.812177
 O         3.225391         0.020696         0.570994
 H         1.606836         2.932380         0.463131
 H         2.796079         2.808902         1.892610
 H         3.371391         2.517400         0.425575
 H         3.535709         0.612208         2.676203
 H         1.963838         0.896268         3.551163
 H         2.358477        -1.866102         2.977737
 H         0.164272         1.173781        -0.714832
 H         0.556268        -0.495934        -1.238448
 H        -0.684484        -0.119868         0.028098
 H         2.615803        -2.019173         0.239450
