19
Iteration:  3740charge 0 multiplicity 1
 C         1.591713         2.606258         1.710983
 C         1.868772         1.034870         1.604212
 C         1.608598         0.112778         2.856091
 C         2.026525        -1.193094         2.144433
 O         0.982134        -1.366844         1.110982
 C         1.501358        -0.171569         0.441789
 C         0.995767        -0.265078        -0.990563
 C         2.977156        -0.601742         0.909839
 O         3.274760         0.813407         1.365415
 H         0.709941         2.909737         2.313819
 H         2.469199         3.017047         2.288593
 H         1.524283         3.043033         0.716182
 H         2.400939         0.335463         3.579306
 H         0.532165         0.176458         3.322648
 H         2.126688        -2.092072         2.788559
 H         1.393283        -1.141159        -1.441523
 H        -0.022083         0.198900        -1.161069
 H         1.554688         0.597895        -1.475321
 H         3.941381        -1.018332         0.656741
