19
Iteration:  1032charge 0 multiplicity 1
 C         2.528852         2.310148         0.761827
 C         2.429954         0.892224         1.152808
 C         2.795149         0.281027         2.605454
 C         1.958908        -0.951061         2.375030
 O         0.546560        -0.560504         2.174596
 C         1.142205         0.002119         0.841457
 C         0.072267         0.185693        -0.146479
 C         2.207022        -1.028946         0.896327
 O         3.241652        -0.112143         0.527770
 H         2.341506         3.030282         1.599790
 H         3.463867         2.632608         0.390881
 H         1.825265         2.548291        -0.087748
 H         3.840287         0.082668         2.548316
 H         2.572850         0.850601         3.673039
 H         2.074627        -1.839487         3.104281
 H        -0.865806        -0.341309         0.136490
 H        -0.236891         1.274278        -0.266422
 H         0.292620        -0.285319        -1.109200
 H         2.035460        -2.044567         0.279968
