19
Iteration:   384
 C         2.505171         2.214827         0.835837
 C         2.449365         0.798265         1.174304
 C         2.655924         0.486736         2.654970
 C         2.017725        -0.936774         2.467824
 O         0.652536        -0.515144         2.183757
 C         1.106478        -0.101134         0.871197
 C         0.031051         0.358742        -0.164556
 C         2.249377        -1.132534         0.851657
 O         3.240523        -0.219963         0.319408
 H         1.725038         2.598373         1.408233
 H         3.402738         2.623355         1.243800
 H         2.341562         2.365688        -0.194610
 H         3.672365         0.687604         2.936043
 H         1.914941         0.975401         3.254340
 H         2.054591        -1.653882         3.228488
 H        -0.889655        -0.160434        -0.063168
 H        -0.026906         1.472131        -0.027759
 H         0.624312         0.171629        -1.092249
 H         2.281702        -2.143721         0.297739
