19
Iteration:  4012
 C         1.522760         2.424652         1.321234
 C         1.912519         0.972564         1.621117
 C         1.670916         0.109490         2.874561
 C         2.045565        -1.218187         2.205593
 O         0.978561        -1.432729         1.231890
 C         1.449504        -0.218473         0.528281
 C         0.996068         0.180132        -0.822879
 C         2.906496        -0.594112         0.964305
 O         3.364915         0.744326         1.297136
 H         0.478880         2.478843         1.052835
 H         1.706097         2.988375         2.236892
 H         2.163718         2.993941         0.575999
 H         2.267815         0.476787         3.714497
 H         0.640119        -0.071401         3.157605
 H         2.603114        -1.949752         2.860551
 H         0.633410        -0.608526        -1.466487
 H         0.198412         0.935697        -0.737473
 H         1.873732         0.600651        -1.186295
 H         3.478030        -1.267749         0.360562
