19
Iteration:  3181charge 0 multiplicity 1
 C         1.373884         2.375646         1.419214
 C         1.922656         0.945936         1.576920
 C         1.834605         0.210192         2.843224
 C         2.120951        -1.157646         2.162806
 O         0.883019        -1.291927         1.311415
 C         1.507414        -0.287784         0.536880
 C         1.004394         0.105334        -0.780980
 C         2.958571        -0.685223         0.935120
 O         3.310862         0.731557         1.173938
 H         0.317006         2.151337         1.371768
 H         1.626437         3.061678         2.238806
 H         1.731248         3.050992         0.601105
 H         2.705773         0.527340         3.597846
 H         0.952154         0.109736         3.421311
 H         2.212071        -1.881404         2.972866
 H         1.919339         0.606082        -1.319575
 H         0.605962        -0.762941        -1.336391
 H         0.169745         0.850163        -0.705865
 H         3.572745        -1.385673         0.408449
