19
Iteration:  3093
 C         1.696359         2.464451         1.462971
 C         1.899312         0.996973         1.533412
 C         1.834744         0.286395         2.886803
 C         2.099054        -1.166016         2.197729
 O         0.912607        -1.399795         1.307459
 C         1.489523        -0.327433         0.521457
 C         0.857971        -0.011354        -0.774384
 C         2.854670        -0.609227         0.906386
 O         3.236872         0.730405         1.140634
 H         2.208426         2.887643         0.565992
 H         0.637988         2.622305         1.550692
 H         2.094887         2.982731         2.389263
 H         2.613410         0.634424         3.695135
 H         0.855641         0.536304         3.365493
 H         2.393825        -2.073890         2.718066
 H        -0.255655         0.308069        -0.764763
 H         1.342907         0.903609        -1.209478
 H         0.961592        -0.917165        -1.511127
 H         3.555139        -1.343539         0.551689
