19
Iteration:  1895
 C         2.436439         2.347242         0.845046
 C         2.356641         0.976439         1.207888
 C         2.490104         0.398933         2.682264
 C         1.980042        -0.976176         2.447045
 O         0.623815        -0.810246         2.036823
 C         1.164731        -0.072272         0.870712
 C         0.209529         0.254804        -0.192069
 C         2.380931        -1.071246         0.876268
 O         3.260144        -0.026676         0.456167
 H         2.560261         2.405973        -0.222569
 H         1.405068         2.680358         1.052299
 H         3.335247         2.872772         1.256734
 H         3.538724         0.483470         3.083165
 H         1.886579         0.961907         3.314119
 H         2.239857        -1.792988         3.158463
 H        -0.622601        -0.388778        -0.135193
 H        -0.198026         1.227757        -0.247473
 H         0.685783         0.172411        -1.134450
 H         2.374632        -2.091504         0.480072
