19
Iteration:  3056
 C         1.590692         2.376630         1.397736
 C         1.993363         0.986305         1.518258
 C         1.823065         0.212035         2.886177
 C         2.103365        -1.177943         2.230756
 O         0.894418        -1.250019         1.384446
 C         1.439953        -0.146294         0.525055
 C         0.716794         0.032157        -0.808754
 C         2.894044        -0.724798         0.932401
 O         3.441342         0.684077         1.164110
 H         2.333341         3.093332         1.072591
 H         0.798574         2.376452         0.615710
 H         1.259679         2.752270         2.346311
 H         2.533327         0.557804         3.532780
 H         0.745554         0.441668         3.185019
 H         2.399539        -2.173593         2.617755
 H         0.050800        -0.775647        -0.798746
 H         0.253287         1.018762        -0.965645
 H         1.450156        -0.148618        -1.603652
 H         3.656980        -1.341975         0.382675
