19
Iteration:  2367
 C         2.052584         2.368117         1.136588
 C         2.271435         0.909025         1.389131
 C         2.292302         0.437052         2.897897
 C         1.999744        -1.062682         2.377896
 O         0.647027        -0.902303         1.813030
 C         1.290614        -0.237423         0.630571
 C         0.378704         0.140671        -0.487164
 C         2.639086        -0.934933         0.800164
 O         3.383627         0.255714         0.628285
 H         1.195860         2.708182         1.777807
 H         2.950384         2.895598         1.410022
 H         1.682042         2.420316         0.147797
 H         3.262656         0.462805         3.314045
 H         1.623756         0.909235         3.725682
 H         2.085479        -1.941236         2.995683
 H        -0.524244        -0.562069        -0.496670
 H        -0.153246         1.121588        -0.402171
 H         0.802880         0.183003        -1.538841
 H         3.070892        -1.852448         0.397579
