19
Iteration:  2025
 C         2.307663         2.352698         0.943987
 C         2.407550         0.918727         1.261024
 C         2.601729         0.360322         2.781709
 C         1.985106        -0.978933         2.420326
 O         0.550990        -0.741453         2.016445
 C         1.144010        -0.108067         0.818174
 C         0.191906         0.124935        -0.337096
 C         2.390846        -1.075683         0.857139
 O         3.351892         0.120763         0.464805
 H         1.301090         2.614940         0.651815
 H         2.529655         2.904991         1.910081
 H         3.139499         2.628841         0.235920
 H         3.652558         0.624598         3.212450
 H         1.852920         0.856113         3.316041
 H         2.111704        -1.867457         3.021569
 H         0.492708         0.845610        -1.120174
 H         0.034576        -0.863566        -0.901303
 H        -0.791042         0.461112         0.160422
 H         2.457636        -1.963572         0.208053
