19
Iteration:  2903
 C         1.778832         2.519996         1.337212
 C         1.995113         1.052691         1.517405
 C         1.887179         0.218253         2.880334
 C         2.102644        -1.149835         2.238897
 O         0.757792        -1.220004         1.515624
 C         1.452145        -0.325770         0.566066
 C         0.692834         0.022109        -0.718834
 C         2.856435        -0.725492         0.871967
 O         3.401494         0.578537         1.004383
 H         0.757767         2.597736         1.350655
 H         2.181806         3.218535         2.083286
 H         2.215761         2.711356         0.394962
 H         2.626734         0.687405         3.513984
 H         0.907373         0.162193         3.352134
 H         2.354063        -2.035248         2.857264
 H         0.349516         1.102423        -0.672275
 H         1.322256        -0.019954        -1.627463
 H        -0.222657        -0.574751        -0.751502
 H         3.360105        -1.492220         0.200833
