19
Iteration:  2089charge 0 multiplicity 1
 C         2.387977         2.390487         0.926102
 C         2.351552         0.911942         1.339895
 C         2.427549         0.428239         2.767522
 C         2.022684        -0.979724         2.395894
 O         0.668016        -0.923699         1.986805
 C         1.147351        -0.185057         0.833297
 C         0.212047         0.225008        -0.293892
 C         2.440690        -0.998722         0.819649
 O         3.262242         0.136744         0.476347
 H         1.430714         2.793560         1.081059
 H         3.195658         2.972617         1.228649
 H         2.383535         2.439000        -0.182450
 H         3.420624         0.426878         3.243801
 H         1.654809         0.731536         3.442077
 H         2.092494        -1.799632         3.121399
 H         0.482482        -0.299143        -1.230960
 H        -0.886250         0.031363        -0.087193
 H         0.386659         1.244847        -0.577940
 H         2.650280        -2.021686         0.428899
