19
Iteration:  3905charge 0 multiplicity 1
 C         1.623216         2.500102         1.720434
 C         1.828620         0.980617         1.541228
 C         1.703930         0.158172         2.802484
 C         2.063604        -1.187224         2.198811
 O         0.907515        -1.302987         1.179620
 C         1.469545        -0.311885         0.459138
 C         1.093449        -0.110168        -0.987837
 C         2.930719        -0.605270         0.999551
 O         3.207797         0.863252         1.259906
 H         0.809950         2.918020         2.279202
 H         2.467567         2.697242         2.338322
 H         1.785327         2.916282         0.674804
 H         2.375557         0.279220         3.734947
 H         0.693587         0.106502         3.135032
 H         2.379593        -2.087327         2.811070
 H         1.410227        -1.167495        -1.384532
 H        -0.055699         0.039976        -1.030541
 H         1.554797         0.714923        -1.526006
 H         3.750647        -1.026471         0.461366
