19
Iteration:  1302
 C         2.471417         2.206511         0.726495
 C         2.439061         0.866649         1.115304
 C         2.632125         0.466294         2.609376
 C         2.071600        -0.928918         2.422732
 O         0.601649        -0.648298         2.126017
 C         1.090033        -0.113454         0.932783
 C         0.094171         0.388849        -0.053642
 C         2.237825        -1.043776         0.865821
 O         3.249739        -0.209358         0.425348
 H         1.480030         2.679443         1.010812
 H         3.371363         2.684397         1.254117
 H         2.613670         2.419642        -0.326686
 H         3.665639         0.552711         2.898291
 H         2.074237         0.918761         3.568546
 H         2.296140        -1.844412         3.133139
 H        -0.886453        -0.124840         0.194301
 H         0.037506         1.514362        -0.070316
 H         0.489757         0.284873        -1.028814
 H         2.368337        -2.038920         0.454665
