19
Iteration:  4582charge 0 multiplicity 1
 C         1.179619         2.333366         1.638662
 C         1.844580         0.937293         1.520447
 C         1.814864         0.188841         2.820546
 C         2.164100        -1.170048         2.137751
 O         0.950519        -1.335603         1.249822
 C         1.511911        -0.269362         0.568691
 C         1.133439         0.117978        -0.852720
 C         3.054422        -0.598601         0.948705
 O         3.259801         0.784810         1.195182
 H         0.209912         2.393208         2.122180
 H         1.894401         2.976931         2.162426
 H         1.061948         2.742367         0.656937
 H         2.523448         0.479086         3.566877
 H         0.811442        -0.108832         3.172262
 H         2.370341        -2.113720         2.606715
 H         0.918528         1.199192        -0.994265
 H         1.992841        -0.212595        -1.506840
 H         0.238062        -0.427753        -1.256327
 H         3.763460        -1.145952         0.301539
