19
Iteration:  1699charge 0 multiplicity 1
 C         2.499048         2.378841         0.819944
 C         2.445185         0.845157         1.200961
 C         2.642782         0.416229         2.664206
 C         1.958139        -0.947296         2.424850
 O         0.604844        -0.677344         2.150815
 C         1.087741        -0.092291         0.829375
 C         0.059578         0.269964        -0.195947
 C         2.328798        -1.066139         0.930262
 O         3.277278        -0.106012         0.342225
 H         2.485420         3.020868         1.654858
 H         3.460014         2.582942         0.410043
 H         1.689762         2.659922         0.097447
 H         3.629783         0.117908         3.001683
 H         2.296481         1.022167         3.465122
 H         1.948480        -1.781183         3.253369
 H        -0.346236         1.258506        -0.155169
 H         0.323450        -0.207363        -1.124681
 H        -0.884652        -0.234974         0.201870
 H         2.598166        -2.123051         0.556540
