19
Iteration:  3538charge 0 multiplicity 1
 C         1.565403         2.488223         1.534382
 C         1.828651         1.028418         1.529554
 C         1.593582         0.102859         2.868019
 C         2.005916        -1.261570         2.143211
 O         0.999138        -1.488705         1.180851
 C         1.591630        -0.198723         0.492266
 C         1.106612         0.076580        -0.919043
 C         2.940109        -0.566204         1.031091
 O         3.213818         0.826771         1.339194
 H         0.650332         2.669694         2.045954
 H         2.379144         3.113844         1.816600
 H         1.353266         2.734059         0.479269
 H         2.322715         0.502428         3.672424
 H         0.666103         0.135186         3.328506
 H         2.441778        -2.081178         2.798434
 H         1.658288        -0.664338        -1.607806
 H         0.104234        -0.291742        -1.071494
 H         1.274395         1.107543        -1.200630
 H         3.738693        -1.229867         0.601707
