19
Iteration:  1853
 C         2.467180         2.301957         0.850187
 C         2.349799         0.851416         1.311758
 C         2.626044         0.374143         2.728191
 C         2.019211        -0.961809         2.400524
 O         0.627763        -0.634756         2.105662
 C         1.083077        -0.092305         0.810881
 C         0.091029         0.178663        -0.342907
 C         2.388440        -1.058093         0.873543
 O         3.224465         0.020234         0.483146
 H         3.218288         2.364008         0.053687
 H         1.462246         2.632109         0.479032
 H         2.820467         3.037952         1.636600
 H         3.751086         0.199982         2.796896
 H         2.175141         0.793710         3.550286
 H         2.076044        -1.710607         3.215939
 H         0.093641        -0.716749        -0.993984
 H        -0.910285         0.351191         0.003435
 H         0.346845         1.182358        -0.821810
 H         2.599904        -1.989933         0.415043
