19
Iteration:  3633charge 0 multiplicity 1
 C         1.244935         2.343607         1.391365
 C         1.874978         0.904449         1.575611
 C         1.788439         0.087132         2.888293
 C         2.116769        -1.213394         2.166166
 O         0.836535        -1.269916         1.281879
 C         1.571353        -0.219089         0.502083
 C         1.223088         0.210907        -0.827453
 C         2.907746        -0.664104         0.996181
 O         3.365002         0.790704         1.272052
 H         0.167503         2.140101         1.111533
 H         1.287792         3.041605         2.272585
 H         1.755539         2.783141         0.480928
 H         2.463358         0.387939         3.714045
 H         0.726817        -0.000216         3.282859
 H         2.291746        -2.231917         2.647543
 H         0.890492        -0.643888        -1.410976
 H         0.343463         0.818565        -1.079456
 H         2.113607         0.665488        -1.241968
 H         3.593058        -1.243192         0.395838
