19
Iteration:  2212
 C         2.214231         2.400136         0.930139
 C         2.254059         0.948765         1.404542
 C         2.474346         0.414656         2.737674
 C         2.053236        -1.080783         2.326464
 O         0.641253        -0.954684         1.942795
 C         1.102547        -0.131762         0.787638
 C         0.344098         0.214515        -0.429534
 C         2.495250        -0.965802         0.871785
 O         3.305165         0.157779         0.660251
 H         3.222815         2.799341         0.747139
 H         1.608900         2.613736         0.008128
 H         1.730449         2.961262         1.723344
 H         3.561801         0.502682         3.081751
 H         1.729120         0.770247         3.469091
 H         2.302113        -1.879316         3.059582
 H        -0.297285         1.121809        -0.278248
 H         0.960585         0.297700        -1.358805
 H        -0.371573        -0.712242        -0.627221
 H         2.728176        -1.887943         0.325686
