19
Iteration:   318
 C         2.693319         2.163658         0.646617
 C         2.409505         0.877388         1.230813
 C         2.568909         0.434587         2.654616
 C         2.013210        -1.003037         2.340444
 O         0.638877        -0.593880         2.281139
 C         1.069618        -0.014257         0.958060
 C         0.078085         0.250597        -0.137840
 C         2.203729        -1.016278         0.832081
 O         3.195345        -0.097859         0.408412
 H         2.486265         2.912583         1.303117
 H         3.700443         2.429059         0.660828
 H         2.234431         2.185198        -0.303807
 H         3.581570         0.496220         2.973925
 H         1.777289         0.837134         3.339341
 H         2.294801        -1.814165         2.995852
 H        -0.145264        -0.676783        -0.659123
 H        -0.873168         0.849758         0.196298
 H         0.573620         0.997020        -0.786547
 H         2.151019        -2.022269         0.295729
