19
Iteration:  3745
 C         1.600519         2.583831         1.710999
 C         1.826780         1.045272         1.604768
 C         1.606830         0.132120         2.842400
 C         2.058597        -1.194421         2.177343
 O         0.969306        -1.381231         1.113222
 C         1.517488        -0.198772         0.437174
 C         1.039586        -0.207577        -0.987844
 C         2.951766        -0.606581         0.962693
 O         3.258228         0.820662         1.331813
 H         0.785677         2.894531         2.376592
 H         2.425700         2.899636         2.333889
 H         1.508904         3.101357         0.709993
 H         2.505334         0.393646         3.489632
 H         0.663737         0.212958         3.247688
 H         1.994674        -2.176919         2.699802
 H         1.311219        -1.176307        -1.522864
 H         0.008231         0.081610        -1.032098
 H         1.658625         0.537823        -1.451906
 H         3.856926        -1.002889         0.391965
