19
Iteration:   967
 C         2.646530         2.275385         0.666490
 C         2.396926         0.871864         1.228613
 C         2.660115         0.447393         2.581005
 C         2.003419        -0.890941         2.455188
 O         0.590555        -0.693888         2.149548
 C         1.071386        -0.108199         0.902012
 C         0.014268         0.356337        -0.050992
 C         2.233919        -1.089957         0.832667
 O         3.254700        -0.168718         0.463394
 H         2.319440         2.991379         1.429712
 H         3.662124         2.396658         0.401021
 H         2.205134         2.277570        -0.334214
 H         3.680188         0.391742         2.760683
 H         2.083370         0.965034         3.440967
 H         2.259954        -1.663744         3.209831
 H        -0.494490        -0.372011        -0.693057
 H        -0.819542         0.935387         0.421606
 H         0.459137         1.059808        -0.737890
 H         2.367487        -2.092311         0.258256
