19
Iteration:  4009
 C         1.513550         2.436621         1.299519
 C         1.924179         0.947211         1.638906
 C         1.672165         0.127721         2.879902
 C         2.051876        -1.233709         2.209668
 O         0.985141        -1.430981         1.243835
 C         1.484957        -0.235226         0.521942
 C         0.993707         0.216448        -0.814364
 C         2.906575        -0.583762         0.963458
 O         3.329360         0.727409         1.288496
 H         0.421162         2.453847         1.101001
 H         1.708252         2.996029         2.268495
 H         2.104536         2.919820         0.519998
 H         2.303047         0.436442         3.676388
 H         0.552001         0.041801         3.145757
 H         2.629919        -1.924392         2.820757
 H         0.719330        -0.538137        -1.490055
 H         0.206370         0.953241        -0.728121
 H         1.942823         0.621183        -1.229232
 H         3.401265        -1.371443         0.349979
