19
Iteration:  2346charge 0 multiplicity 1
 C         2.084006         2.522090         1.097328
 C         2.214610         0.921277         1.313499
 C         2.395370         0.337913         2.703007
 C         2.038408        -1.080930         2.323045
 O         0.633982        -0.941712         1.823645
 C         1.230041        -0.168267         0.769382
 C         0.415275         0.078310        -0.439624
 C         2.524582        -0.935719         0.875026
 O         3.367782         0.250390         0.745711
 H         1.055600         2.932760         1.214828
 H         2.740748         3.020204         1.776245
 H         2.303569         2.722018         0.058843
 H         3.358420         0.406425         3.137838
 H         1.597732         0.544333         3.509018
 H         2.224250        -1.883755         3.012200
 H         0.089402        -0.882408        -0.955326
 H        -0.503301         0.726758        -0.382383
 H         1.132764         0.628043        -1.100464
 H         2.720100        -1.812924         0.260045
