19
Iteration:   179charge 0 multiplicity 1
 C         2.623096         2.305107         0.690800
 C         2.358737         0.861527         1.125503
 C         2.599587         0.444662         2.622974
 C         2.110773        -1.004470         2.390732
 O         0.602909        -0.628400         2.257769
 C         1.045900        -0.082914         0.964494
 C         0.110659         0.370961        -0.081506
 C         2.233643        -1.083026         0.826723
 O         3.189956        -0.207112         0.399750
 H         2.136394         2.937311         1.410308
 H         3.668361         2.567790         0.881546
 H         2.413961         2.460529        -0.343503
 H         3.592584         0.673053         2.929389
 H         1.944821         0.749304         3.425287
 H         2.251733        -1.788440         3.151245
 H        -0.835665        -0.106357        -0.103093
 H        -0.047702         1.326326        -0.079428
 H         0.550861         0.282999        -1.113073
 H         2.213756        -2.046855         0.187505
