19
Iteration:  3665
 C         1.295932         2.319988         1.381461
 C         1.888696         0.901890         1.553529
 C         1.805648         0.162450         2.909346
 C         1.997637        -1.135597         2.264206
 O         0.923340        -1.392204         1.240693
 C         1.608671        -0.323024         0.492475
 C         1.147658         0.333030        -0.798905
 C         2.965779        -0.696204         0.940371
 O         3.291961         0.753669         1.278062
 H         0.235221         2.085351         1.082901
 H         1.445050         3.129150         2.137652
 H         1.769638         2.782045         0.459779
 H         2.451913         0.562206         3.682844
 H         0.733079         0.275855         3.311522
 H         2.103192        -2.147070         2.609282
 H         1.326102        -0.442443        -1.535440
 H         0.152352         0.825642        -0.866982
 H         1.825293         1.148587        -1.060583
 H         3.579033        -1.319485         0.311689
