19
Iteration:  1692
 C         2.529395         2.278743         0.846479
 C         2.447749         0.904577         1.237378
 C         2.672492         0.478705         2.671409
 C         1.972635        -0.915965         2.459074
 O         0.562498        -0.689541         2.117876
 C         1.058363        -0.098341         0.906339
 C         0.032099         0.239129        -0.189122
 C         2.321195        -1.060808         0.852517
 O         3.274509        -0.113815         0.337256
 H         2.314897         2.871640         1.771044
 H         3.520609         2.530948         0.398379
 H         1.882993         2.598943         0.062395
 H         3.814181         0.285515         2.825219
 H         2.241897         1.083677         3.477891
 H         2.145690        -1.745912         3.086340
 H        -0.228057         1.314088        -0.214795
 H         0.441000        -0.087097        -1.149373
 H        -0.773201        -0.459591        -0.068290
 H         2.405941        -2.016104         0.458169
