19
Iteration:   636
 C         2.638791         2.259988         0.615068
 C         2.397692         0.893488         1.224331
 C         2.663912         0.350768         2.677175
 C         2.036051        -1.017702         2.402356
 O         0.584021        -0.634634         2.195741
 C         1.134676         0.001582         0.957047
 C         0.028410         0.270665        -0.137967
 C         2.204854        -1.062312         0.835145
 O         3.207432        -0.068251         0.501135
 H         1.833414         2.967714         0.712238
 H         3.520741         2.817348         1.020945
 H         2.710221         2.203003        -0.471355
 H         3.745937         0.384876         2.826903
 H         2.171318         0.858487         3.408108
 H         2.225614        -1.933339         3.042397
 H        -0.752588        -0.474041        -0.108253
 H        -0.366810         1.188144         0.041503
 H         0.468981         0.254889        -1.180760
 H         2.092670        -1.941901         0.031287
