19
Iteration:  1235
 C         2.622944         2.276663         0.748602
 C         2.404169         0.890686         1.296026
 C         2.721464         0.374365         2.651944
 C         1.977696        -1.004804         2.426357
 O         0.637766        -0.619967         2.217983
 C         1.065411        -0.020752         0.887059
 C         0.123204         0.133362        -0.248513
 C         2.132699        -0.966233         0.829140
 O         3.170228        -0.072610         0.419212
 H         2.486602         3.074108         1.536425
 H         3.745057         2.334103         0.464141
 H         1.966186         2.614543        -0.047525
 H         3.895756         0.280990         2.708942
 H         2.325935         0.977242         3.500212
 H         2.156058        -1.695162         3.268557
 H        -0.753991        -0.530308         0.074799
 H        -0.253317         1.161957        -0.397234
 H         0.424243        -0.083302        -1.294503
 H         2.071203        -1.815428         0.248519
