19
Iteration:  4628
 C         1.346130         2.234846         1.389150
 C         1.858266         0.946247         1.677416
 C         1.745536         0.035778         2.858700
 C         2.159408        -1.239197         2.113021
 O         1.055333        -1.304442         1.112681
 C         1.589534        -0.173886         0.483565
 C         0.831946         0.071010        -0.746370
 C         3.060946        -0.480802         0.972753
 O         3.295847         0.879579         1.368864
 H         0.298095         2.235270         1.453470
 H         1.703813         3.109330         1.982810
 H         1.405064         2.539047         0.343047
 H         2.518019         0.456930         3.504613
 H         0.704344        -0.026276         3.279148
 H         2.345985        -2.253838         2.552332
 H         1.459306         0.918864        -1.250702
 H         0.739061        -0.882718        -1.311128
 H        -0.151232         0.431806        -0.472047
 H         3.850709        -1.011991         0.573228
