19
Iteration:  3155
 C         1.351142         2.331071         1.466188
 C         1.971106         0.928398         1.544161
 C         1.913336         0.176743         2.867590
 C         1.991095        -1.175068         2.253326
 O         0.864855        -1.219780         1.312363
 C         1.544522        -0.190726         0.496886
 C         0.914438         0.057585        -0.874093
 C         2.940366        -0.609688         0.958721
 O         3.432155         0.711746         1.163185
 H         0.424940         2.272403         0.794478
 H         1.024391         2.784320         2.446186
 H         2.045203         3.079752         1.175901
 H         2.780396         0.470221         3.332046
 H         1.010591         0.333055         3.540256
 H         2.291487        -2.079105         2.877151
 H         1.056307         0.969463        -1.289508
 H         1.305035        -0.797192        -1.442581
 H        -0.161041        -0.219653        -0.814756
 H         3.547717        -1.458035         0.553304
