19
Iteration:  4393
 C         1.312148         2.392559         1.829056
 C         1.891600         1.010595         1.542672
 C         1.768124         0.177949         2.894998
 C         2.045754        -1.147618         2.146274
 O         0.940147        -1.246029         1.228089
 C         1.544433        -0.196275         0.500229
 C         1.064393        -0.176710        -1.096414
 C         2.976216        -0.561128         0.931263
 O         3.338781         0.753728         1.227758
 H         0.273459         2.379872         2.120442
 H         1.885429         3.010190         2.477835
 H         1.336927         2.761864         0.781231
 H         2.666434         0.423151         3.496545
 H         0.799526         0.310689         3.256460
 H         2.424448        -1.948333         2.849559
 H         1.921191        -0.346119        -1.827972
 H         0.176587        -0.834444        -1.260715
 H         0.729524         0.869545        -1.294016
 H         3.676613        -1.295185         0.465219
