19
Iteration:   546charge 0 multiplicity 1
 C         2.566488         2.255997         0.662926
 C         2.434263         0.863394         1.240294
 C         2.684237         0.371468         2.682626
 C         2.007707        -0.983327         2.379143
 O         0.670459        -0.593449         2.215206
 C         1.068823         0.084401         0.959985
 C         0.161806         0.245593        -0.191492
 C         2.171171        -1.073889         0.838266
 O         3.151253        -0.160506         0.446907
 H         2.055197         2.976509         1.448957
 H         3.549400         2.685600         0.661509
 H         1.969274         2.329070        -0.248515
 H         3.743725         0.298066         3.007230
 H         1.928359         0.771712         3.315349
 H         2.144817        -1.713996         3.079253
 H        -0.449192        -0.586036        -0.346062
 H        -0.491046         1.151192        -0.146773
 H         0.728165         0.389921        -1.078905
 H         2.108330        -1.966482         0.199539
