19
Iteration:   511
 C         2.687500         2.229153         0.637699
 C         2.348576         0.903017         1.196736
 C         2.665393         0.341706         2.656676
 C         1.971720        -0.952360         2.432531
 O         0.584776        -0.640390         2.154635
 C         1.094183        -0.097574         0.883279
 C        -0.045349         0.336982        -0.137905
 C         2.350142        -1.098762         0.872634
 O         3.207337        -0.065498         0.481937
 H         2.304604         3.089268         1.326736
 H         3.739601         2.251474         0.339349
 H         2.264004         2.452635        -0.377827
 H         3.722733         0.268417         2.942340
 H         2.308166         0.963473         3.577398
 H         2.114968        -1.619135         3.280738
 H        -0.532199        -0.528593        -0.611355
 H        -0.809231         0.889797         0.546658
 H         0.388034         1.032332        -0.801606
 H         2.522273        -2.017927         0.433250
