19
Iteration:  3623charge 0 multiplicity 1
 C         1.285640         2.335823         1.419212
 C         1.893099         0.982379         1.631698
 C         1.785230         0.135835         2.931280
 C         2.042093        -1.263355         2.132160
 O         0.884192        -1.246942         1.246580
 C         1.559518        -0.222488         0.518554
 C         1.192928         0.114404        -0.924048
 C         2.965443        -0.603637         0.916395
 O         3.304026         0.746503         1.310182
 H         0.184193         2.259307         1.318993
 H         1.390488         2.905721         2.360491
 H         1.650869         2.958812         0.554415
 H         2.556172         0.284618         3.715993
 H         0.764531         0.058292         3.324235
 H         2.174524        -2.074425         2.915408
 H         0.974916        -0.883515        -1.358766
 H         0.355219         0.814730        -0.839138
 H         2.008931         0.471840        -1.522309
 H         3.824930        -1.091756         0.457003
