19
Iteration:   641
 C         2.640504         2.232353         0.604886
 C         2.355500         0.909495         1.214240
 C         2.686154         0.357583         2.683426
 C         2.000308        -1.024548         2.409242
 O         0.596118        -0.659160         2.187889
 C         1.115510        -0.003077         0.944197
 C         0.067937         0.272304        -0.118235
 C         2.241053        -1.052328         0.838825
 O         3.209575        -0.050233         0.480559
 H         1.942361         3.107081         0.764824
 H         3.556945         2.672296         0.985804
 H         2.765508         2.064615        -0.486668
 H         3.787883         0.416265         2.737316
 H         2.060520         0.824652         3.582974
 H         2.087260        -1.879657         3.081601
 H        -0.725790        -0.526945        -0.137150
 H        -0.512059         1.299841         0.097733
 H         0.371666         0.380687        -1.143283
 H         2.058389        -1.874388         0.250316
