19
Iteration:  4927charge 0 multiplicity 1
 C         1.125869         2.315589         1.405956
 C         1.817540         0.926280         1.626100
 C         1.900957         0.065071         2.900126
 C         2.268029        -1.248538         2.083811
 O         1.014843        -1.427513         1.204842
 C         1.583912        -0.218484         0.527469
 C         0.863552         0.189589        -0.764584
 C         3.001031        -0.550239         0.881832
 O         3.377671         0.909599         1.325813
 H         0.056575         2.158068         1.096390
 H         1.033879         2.833376         2.335020
 H         1.529085         3.068680         0.768690
 H         2.591298         0.364569         3.672415
 H         0.906163        -0.168401         3.385089
 H         2.566964        -2.072370         2.705643
 H        -0.176890         0.517812        -0.635401
 H         1.394672         1.046363        -1.298456
 H         0.836118        -0.723579        -1.417172
 H         3.847100        -1.047164         0.305978
