19
Iteration:  3660
 C         1.283594         2.290295         1.331371
 C         1.874463         0.872941         1.584051
 C         1.777922         0.197502         2.911167
 C         2.032586        -1.185953         2.213511
 O         0.936668        -1.363103         1.270861
 C         1.573649        -0.286712         0.497853
 C         1.194373         0.348954        -0.771786
 C         2.930266        -0.657622         0.940208
 O         3.299461         0.718682         1.243897
 H         0.276172         2.007127         1.085292
 H         1.432524         2.981037         2.169050
 H         1.729278         2.841439         0.535279
 H         2.464811         0.415903         3.765736
 H         0.774426         0.280687         3.361315
 H         2.059297        -2.114599         2.863903
 H         1.144829        -0.447602        -1.565615
 H         0.224843         0.832803        -0.971284
 H         1.937315         1.164469        -0.987917
 H         3.761179        -1.169073         0.370619
