19
Iteration:   135charge 0 multiplicity 1
 C         2.583209         2.388527         0.709558
 C         2.353318         0.849437         1.142775
 C         2.799203         0.240954         2.656849
 C         1.945673        -0.960898         2.470925
 O         0.572320        -0.398562         2.103285
 C         1.102821        -0.067610         0.858997
 C         0.013468         0.172225        -0.066142
 C         2.238224        -1.084082         0.857715
 O         3.243933        -0.162664         0.449971
 H         2.201511         2.948568         1.524569
 H         3.616223         2.696825         0.737802
 H         2.157695         2.681488        -0.200959
 H         3.804030         0.031051         2.579843
 H         2.717575         0.883600         3.499015
 H         1.956061        -1.889722         3.108796
 H        -0.438889        -0.778975        -0.346146
 H        -0.656676         0.694799         0.503667
 H         0.368507         0.847801        -0.894479
 H         2.345677        -2.157022         0.405205
