19
Iteration:  3488
 C         1.197901         2.213309         1.414450
 C         1.990917         0.986876         1.548123
 C         1.774673         0.082507         2.850426
 C         1.978272        -1.224236         2.173061
 O         0.910524        -1.153713         1.227472
 C         1.563192        -0.134917         0.526111
 C         1.160979         0.143902        -0.945312
 C         2.956078        -0.661245         1.063346
 O         3.429715         0.718781         1.363022
 H         0.087994         1.968638         1.427093
 H         1.335408         2.959530         2.281906
 H         1.352741         2.610505         0.386045
 H         2.427747         0.186726         3.725098
 H         0.677402         0.266861         3.124917
 H         1.990137        -1.984994         2.939607
 H         1.693483        -0.420085        -1.708539
 H         0.104372        -0.173246        -1.121168
 H         1.326563         1.239139        -1.068318
 H         3.690538        -1.122181         0.345215
