19
Iteration:  3460
 C         1.267352         2.340814         1.526810
 C         1.854627         0.970559         1.525338
 C         1.685144         0.179820         2.909771
 C         2.032011        -1.182835         2.128086
 O         0.921496        -1.263737         1.158758
 C         1.592189        -0.254569         0.480306
 C         1.220862         0.101160        -0.885769
 C         2.984612        -0.676963         1.060367
 O         3.347970         0.721064         1.295277
 H         0.314688         2.332514         1.009744
 H         1.152426         2.641537         2.532528
 H         1.871960         3.073599         1.003967
 H         2.604619         0.386289         3.449896
 H         0.756220         0.423455         3.456383
 H         2.192454        -2.001970         2.847381
 H         1.269306        -0.670256        -1.670100
 H         0.108548         0.306466        -0.709965
 H         1.600412         1.040239        -1.309934
 H         3.762999        -1.146251         0.521199
