19
Iteration:  1971charge 0 multiplicity 1
 C         2.497101         2.354160         0.938148
 C         2.426548         0.965002         1.296547
 C         2.471817         0.381306         2.748545
 C         1.978691        -0.954914         2.429345
 O         0.621303        -0.782320         2.028764
 C         1.069747        -0.164904         0.867855
 C         0.183637         0.100946        -0.315207
 C         2.387700        -0.982214         0.800824
 O         3.236313         0.086271         0.468273
 H         1.589776         2.499708         0.364298
 H         2.641958         3.013568         1.861308
 H         3.377185         2.541911         0.229082
 H         3.581650         0.453978         3.061314
 H         1.892101         1.040369         3.327027
 H         2.163431        -1.833893         3.046212
 H        -0.433392         1.000616        -0.268677
 H         0.733294         0.061062        -1.284934
 H        -0.595129        -0.706280        -0.391162
 H         2.710640        -1.888974         0.252058
