19
Iteration:  3705
 C         1.469715         2.406647         1.557160
 C         1.930603         0.961332         1.588520
 C         1.622230         0.129273         2.856979
 C         2.048364        -1.228810         2.149556
 O         0.929480        -1.240730         1.138994
 C         1.584542        -0.146343         0.481043
 C         0.999417        -0.101881        -0.917619
 C         3.005312        -0.603818         0.905726
 O         3.334789         0.803771         1.419007
 H         0.412114         2.578483         1.752518
 H         2.155989         3.006483         2.204153
 H         1.690769         2.775691         0.598014
 H         2.192667         0.498692         3.669206
 H         0.531257         0.001999         3.210583
 H         2.353690        -1.983522         2.823232
 H         1.038494        -0.978643        -1.540284
 H        -0.130376        -0.052191        -0.790841
 H         1.397677         0.819991        -1.451651
 H         3.795202        -1.225513         0.478041
