19
Iteration:  3795charge 0 multiplicity 1
 C         1.308937         2.370173         1.462327
 C         1.861605         0.942574         1.547854
 C         1.794187         0.133460         2.878496
 C         2.022088        -1.229888         2.191927
 O         0.878724        -1.311141         1.286161
 C         1.593727        -0.146844         0.521182
 C         1.206024         0.175050        -0.863147
 C         2.867683        -0.651354         0.936198
 O         3.375301         0.694985         1.249746
 H         0.226562         2.327133         1.648545
 H         1.680824         3.122170         2.168119
 H         1.372819         2.692423         0.394949
 H         2.466600         0.447622         3.717573
 H         0.689846         0.084734         3.124167
 H         2.363100        -2.117776         2.786524
 H         1.119758        -0.650378        -1.594529
 H         0.136888         0.597642        -0.811016
 H         1.963175         0.900510        -1.241956
 H         3.651184        -1.224556         0.474107
