19
Iteration:  3413
 C         1.550186         2.514036         1.498778
 C         1.767058         1.011121         1.676859
 C         1.602805         0.026846         2.852093
 C         2.111727        -1.144375         2.147801
 O         1.080225        -1.359776         1.110713
 C         1.530440        -0.232960         0.474864
 C         1.091554        -0.056065        -0.863174
 C         2.888847        -0.575244         0.952782
 O         3.225563         0.813059         1.396230
 H         0.937776         2.740287         0.599815
 H         1.084029         2.932485         2.437272
 H         2.493114         3.046845         1.329257
 H         2.067631         0.492770         3.680636
 H         0.469564        -0.258645         2.911470
 H         2.441829        -2.068220         2.594172
 H         0.569394        -0.970775        -1.142070
 H         0.422952         0.861836        -0.954260
 H         1.982721         0.050669        -1.565319
 H         3.710319        -1.156419         0.458754
