19
Iteration:   702charge 0 multiplicity 1
 C         2.542200         2.348549         0.845450
 C         2.429713         0.837911         1.125596
 C         2.613102         0.474625         2.605283
 C         2.037796        -0.920537         2.389394
 O         0.585817        -0.489499         2.140797
 C         1.112020        -0.041943         0.885170
 C         0.030316         0.259373        -0.092237
 C         2.277944        -1.110331         0.851249
 O         3.296082        -0.328939         0.427278
 H         2.360300         2.912644         1.696251
 H         3.552711         2.471920         0.305909
 H         1.690465         2.528479         0.158016
 H         3.659261         0.503237         2.839394
 H         2.119848         0.987999         3.331704
 H         2.140600        -1.697873         3.291578
 H        -0.125671        -0.705911        -0.655010
 H        -0.842452         0.451889         0.438306
 H         0.353479         1.115318        -0.773445
 H         2.035636        -2.209643         0.296915
