19
Iteration:    37
 C         2.560532         2.196872         0.649083
 C         2.478512         0.855469         1.245947
 C         2.740079         0.401619         2.642154
 C         2.002901        -0.963873         2.413019
 O         0.640658        -0.500046         2.084124
 C         1.157330         0.001584         0.829075
 C        -0.081663         0.328074        -0.016506
 C         2.214897        -1.073043         0.813180
 O         3.252137        -0.226799         0.523562
 H         1.764881         2.789920         0.994413
 H         3.436262         2.778695         0.817477
 H         2.472935         1.971371        -0.352692
 H         3.740837         0.357374         2.886804
 H         2.222005         0.966662         3.421638
 H         1.984101        -1.827239         3.161883
 H        -0.410515        -0.646461        -0.562296
 H        -0.815151         0.503312         0.770700
 H        -0.092766         1.336428        -0.723956
 H         2.117158        -2.123041         0.291475
