19
Iteration:  2878charge 0 multiplicity 1
 C         1.738875         2.355319         1.334675
 C         2.071437         0.974091         1.421484
 C         1.982910         0.350670         2.871602
 C         2.024477        -1.107723         2.250163
 O         0.813254        -1.285524         1.481803
 C         1.380227        -0.197353         0.638309
 C         0.711457         0.127258        -0.681529
 C         2.843851        -0.791205         0.924702
 O         3.344019         0.548356         0.969261
 H         0.741860         2.459812         0.855394
 H         1.491353         2.785479         2.308687
 H         2.578300         2.904386         0.829214
 H         2.883894         0.827265         3.433852
 H         1.079334         0.526571         3.406075
 H         2.212211        -1.996201         2.855632
 H        -0.211217         0.833440        -0.627440
 H         1.426152         0.722879        -1.282119
 H         0.433300        -0.825130        -1.121018
 H         3.391876        -1.542864         0.347232
