19
Iteration:  4103charge 0 multiplicity 1
 C         1.522053         2.431353         1.508610
 C         1.830400         0.945498         1.581588
 C         1.759134         0.152130         2.911085
 C         2.055655        -1.190508         2.235142
 O         0.828112        -1.272713         1.292000
 C         1.494142        -0.221639         0.554341
 C         1.161597         0.091447        -0.910755
 C         2.877215        -0.686903         0.960964
 O         3.282962         0.723656         1.125309
 H         0.431148         2.517692         1.331298
 H         1.802002         2.770214         2.507501
 H         2.148343         2.879662         0.779906
 H         2.567050         0.483941         3.595695
 H         0.743726         0.107808         3.261009
 H         2.449990        -2.098766         2.647519
 H         1.752877        -0.593220        -1.591142
 H         0.148053        -0.047444        -1.256785
 H         1.563861         1.112225        -1.213382
 H         3.785343        -1.162205         0.507711
