19
Iteration:  4798
 C         1.332783         2.345379         1.498823
 C         1.791714         0.962717         1.615556
 C         1.648172         0.006999         2.910641
 C         2.239673        -1.104036         2.090402
 O         1.199103        -1.526308         1.170699
 C         1.577033        -0.220382         0.529302
 C         0.882718         0.080267        -0.825499
 C         2.960612        -0.443775         0.926567
 O         3.261591         0.898573         1.299329
 H         0.567595         2.488650         2.330257
 H         2.104797         3.020595         1.858856
 H         0.916184         2.620052         0.559431
 H         2.399096         0.297951         3.603547
 H         0.601956        -0.139397         3.258400
 H         2.586054        -2.019265         2.491463
 H        -0.083301        -0.355707        -0.853432
 H         0.812033         1.168130        -0.936805
 H         1.453636        -0.128997        -1.705156
 H         3.672130        -0.993848         0.260168
