19
Iteration:  1931
 C         2.405424         2.339176         0.866730
 C         2.265831         0.834898         1.217181
 C         2.518125         0.390615         2.644999
 C         2.013331        -1.016645         2.384966
 O         0.651061        -0.654463         2.049849
 C         1.160982        -0.114313         0.716618
 C         0.062235         0.227950        -0.249262
 C         2.449351        -1.024023         0.847060
 O         3.350969         0.003558         0.662702
 H         1.762810         2.492027        -0.034075
 H         2.117131         3.007831         1.699576
 H         3.403883         2.694624         0.694391
 H         3.576843         0.348589         2.850300
 H         1.934943         0.797746         3.465467
 H         2.140035        -1.809737         3.090955
 H        -0.914846         0.125195         0.226612
 H         0.229971         1.171021        -0.685870
 H         0.138039        -0.661608        -0.925737
 H         2.648147        -1.964708         0.418784
