19
Iteration:   703charge 0 multiplicity 1
 C         2.541374         2.340107         0.844833
 C         2.429044         0.838542         1.126529
 C         2.633409         0.472602         2.607448
 C         2.036106        -0.927741         2.392239
 O         0.581802        -0.480438         2.138422
 C         1.113404        -0.051689         0.884427
 C         0.029396         0.259840        -0.101538
 C         2.264924        -1.107626         0.855084
 O         3.297398        -0.320314         0.424202
 H         2.366937         2.940614         1.697462
 H         3.538813         2.494146         0.313657
 H         1.670985         2.528697         0.182947
 H         3.639149         0.495231         2.836551
 H         2.112070         0.993678         3.374619
 H         2.113582        -1.679887         3.316829
 H        -0.107490        -0.720491        -0.652615
 H        -0.792500         0.425313         0.461184
 H         0.336169         1.078235        -0.772078
 H         2.054894        -2.196860         0.268123
