19
Iteration:   743charge 0 multiplicity 1
 C         2.572626         2.297039         0.722851
 C         2.342049         0.904359         1.279244
 C         2.781093         0.313979         2.649568
 C         2.010163        -0.973231         2.476473
 O         0.528757        -0.479984         2.222117
 C         1.040075        -0.059439         0.937714
 C         0.190274         0.152191        -0.217701
 C         2.215416        -1.049034         0.848233
 O         3.186845        -0.105371         0.369257
 H         2.627771         2.990077         1.559583
 H         3.547025         2.281965         0.117662
 H         1.848220         2.622679        -0.040928
 H         3.994252         0.200795         2.546760
 H         2.510463         0.757540         3.609376
 H         2.066443        -1.809221         3.212037
 H        -0.299216        -0.761431        -0.585976
 H        -0.811863         0.726428        -0.116478
 H         0.547814         0.794366        -1.127425
 H         2.258848        -2.025537         0.354715
