19
Iteration:  2132charge 0 multiplicity 1
 C         2.361228         2.427873         1.038405
 C         2.330644         0.945624         1.305303
 C         2.502233         0.385761         2.722453
 C         2.049061        -1.017592         2.323740
 O         0.659420        -0.771166         1.981089
 C         1.050938        -0.138040         0.739590
 C         0.065096         0.031966        -0.437077
 C         2.489187        -1.019740         0.822116
 O         3.333089         0.130109         0.676941
 H         2.267735         3.066604         1.892374
 H         3.320965         2.614176         0.643903
 H         1.609372         2.814744         0.289684
 H         3.521732         0.529220         3.085173
 H         1.850171         0.846356         3.467750
 H         2.279970        -1.807693         3.028813
 H        -0.212134        -0.973536        -0.773260
 H        -0.765489         0.695615        -0.099320
 H         0.725301         0.420105        -1.182999
 H         2.910941        -1.901091         0.286108
