19
Iteration:   100
 C         2.636766         2.188252         0.767578
 C         2.414543         0.827586         1.162982
 C         2.722381         0.455126         2.708250
 C         2.115693        -0.923516         2.445698
 O         0.611812        -0.535152         2.218111
 C         1.052208        -0.009050         0.974606
 C         0.084576         0.262462        -0.175905
 C         2.132610        -1.013364         0.822741
 O         3.137101        -0.217497         0.325639
 H         1.915441         2.742249         1.371748
 H         3.740844         2.408398         0.922306
 H         2.345041         2.475006        -0.236259
 H         3.741244         0.430749         2.923691
 H         2.067599         1.146715         3.308538
 H         2.313706        -1.891884         3.053427
 H         0.064181        -0.591562        -0.849746
 H        -0.838573         0.381240         0.129722
 H         0.309055         1.016187        -0.853200
 H         2.018079        -2.086565         0.401034
