19
Iteration:  3455
 C         1.293120         2.351463         1.533415
 C         1.853517         0.970406         1.498844
 C         1.717980         0.164862         2.861407
 C         2.017859        -1.197815         2.168355
 O         0.948462        -1.294105         1.169205
 C         1.613087        -0.234733         0.481965
 C         1.180000         0.086725        -0.900100
 C         2.969811        -0.642916         1.079232
 O         3.297648         0.739576         1.301499
 H         0.339887         2.371329         0.954136
 H         1.189990         2.741579         2.600276
 H         2.055719         3.059620         1.125407
 H         2.563941         0.353261         3.573413
 H         0.731762         0.266918         3.390609
 H         2.184224        -2.013485         2.868258
 H         1.283931        -0.668824        -1.683386
 H         0.158957         0.511053        -0.861301
 H         1.694674         0.978009        -1.320458
 H         3.699101        -1.264042         0.479198
