19
Iteration:  2368
 C         2.048922         2.363503         1.146398
 C         2.274646         0.892123         1.393096
 C         2.291348         0.445409         2.890790
 C         1.999045        -1.058238         2.380872
 O         0.645732        -0.897567         1.808562
 C         1.299056        -0.247474         0.630292
 C         0.373120         0.143851        -0.488020
 C         2.637085        -0.932264         0.796678
 O         3.385631         0.261998         0.630056
 H         1.225846         2.732676         1.780826
 H         2.945399         2.902638         1.363314
 H         1.662309         2.387916         0.142878
 H         3.268591         0.451038         3.334480
 H         1.606927         0.886977         3.701427
 H         2.094887        -1.937086         3.005807
 H        -0.534273        -0.550766        -0.474085
 H        -0.128333         1.155167        -0.419728
 H         0.792579         0.149753        -1.509439
 H         3.066128        -1.854384         0.388404
