19
Iteration:  3063charge 0 multiplicity 1
 C         1.605289         2.454768         1.400609
 C         1.945399         0.992267         1.479081
 C         1.846125         0.171992         2.859282
 C         2.071389        -1.179123         2.202463
 O         0.902791        -1.307612         1.409430
 C         1.506118        -0.166358         0.529675
 C         0.724702         0.031328        -0.810972
 C         2.894528        -0.688498         0.973189
 O         3.432014         0.683744         1.140485
 H         2.423835         2.991596         0.926265
 H         0.652761         2.704214         0.843216
 H         1.270520         2.760392         2.452149
 H         2.474094         0.517389         3.777349
 H         0.827451         0.343473         3.128709
 H         2.300768        -2.103486         2.747222
 H        -0.211424        -0.643488        -0.821849
 H         0.391657         1.045631        -1.008711
 H         1.346130        -0.197646        -1.642756
 H         3.636031        -1.392656         0.537186
