19
Iteration:  3574charge 0 multiplicity 1
 C         1.554734         2.546125         1.740169
 C         1.850291         0.983944         1.512914
 C         1.508575         0.122865         2.789558
 C         2.052591        -1.196386         2.147267
 O         1.020964        -1.314252         1.174370
 C         1.601905        -0.269597         0.367045
 C         0.995666        -0.155986        -0.918219
 C         3.011710        -0.550113         0.978316
 O         3.285918         0.781794         1.374308
 H         0.503370         2.655012         2.068493
 H         2.213368         3.265128         2.323962
 H         1.431638         2.944310         0.718455
 H         2.107559         0.484081         3.666399
 H         0.404376         0.124461         2.935720
 H         2.299432        -2.075700         2.741398
 H         1.174597        -1.117747        -1.417992
 H         0.012462         0.321576        -0.872309
 H         1.704574         0.540791        -1.441715
 H         3.919118        -0.952568         0.429999
