19
Iteration:  2535
 C         1.934195         2.352998         1.105133
 C         2.123927         0.977627         1.524419
 C         2.265814         0.285439         2.816182
 C         2.088500        -1.129376         2.311672
 O         0.704450        -1.091676         1.790541
 C         1.240610        -0.172069         0.694309
 C         0.523356         0.176405        -0.635211
 C         2.619979        -0.794711         0.807737
 O         3.393020         0.392360         0.831802
 H         2.318623         2.444168         0.120926
 H         0.899961         2.694736         0.958502
 H         2.431505         3.038886         1.820543
 H         3.221279         0.464793         3.453187
 H         1.443521         0.689324         3.384094
 H         2.429197        -1.960104         2.963466
 H         0.903139        -0.504433        -1.473516
 H        -0.543143        -0.139315        -0.430819
 H         0.614704         1.241500        -1.074496
 H         2.743402        -1.699071         0.175493
