19
Iteration:  1327
 C         2.566044         2.295716         0.641356
 C         2.315916         0.938735         1.239445
 C         2.753426         0.313629         2.625264
 C         1.972949        -1.055303         2.479433
 O         0.644912        -0.570912         2.215986
 C         1.084662        -0.113749         0.932012
 C         0.081497         0.324894        -0.147027
 C         2.284684        -1.123714         0.824341
 O         3.160415        -0.070013         0.426143
 H         1.615450         2.900283         0.491751
 H         3.327604         2.854600         1.187713
 H         2.979079         2.128364        -0.444507
 H         3.776059         0.415455         2.842842
 H         2.192382         0.887046         3.464179
 H         1.996703        -1.689753         3.370058
 H        -0.547885        -0.517602        -0.278316
 H        -0.486356         1.220792         0.167321
 H         0.621903         0.642084        -1.049580
 H         2.493016        -2.114148         0.182384
