19
Iteration:  2325charge 0 multiplicity 1
 C         2.235160         2.433715         1.086647
 C         2.158771         0.923328         1.423407
 C         2.366226         0.399900         2.837320
 C         2.042538        -1.055080         2.275197
 O         0.629670        -0.940876         1.921729
 C         1.195931        -0.169113         0.794537
 C         0.427517         0.033328        -0.543701
 C         2.523255        -0.891718         0.762223
 O         3.308218         0.245989         0.679588
 H         1.238008         2.746231         0.711113
 H         2.338058         3.061811         1.957312
 H         2.940183         2.731966         0.283197
 H         3.387786         0.647191         3.099382
 H         1.572506         0.677330         3.625049
 H         2.252261        -1.948873         2.833140
 H         0.618770        -0.792129        -1.289572
 H        -0.665739         0.009449        -0.302257
 H         0.657152         1.027378        -0.908209
 H         2.832943        -1.698577         0.086237
