19
Iteration:  3977charge 0 multiplicity 1
 C         1.350971         2.289150         1.316216
 C         1.870677         0.860839         1.508461
 C         1.791389         0.117870         2.845660
 C         2.025121        -1.197229         2.211052
 O         0.843633        -1.259979         1.238050
 C         1.611906        -0.280921         0.550600
 C         1.042806         0.255185        -0.798358
 C         2.986403        -0.620588         1.046110
 O         3.372168         0.740950         1.263676
 H         0.396439         2.421119         1.867729
 H         2.010331         2.856315         2.047060
 H         1.304603         2.646878         0.289183
 H         2.556064         0.451912         3.491706
 H         0.764215         0.236686         3.398916
 H         2.225212        -2.083709         2.879810
 H         1.109789        -0.363529        -1.619936
 H         0.155454         0.877672        -0.812534
 H         1.818960         0.997811        -0.996618
 H         3.638257        -1.391159         0.605309
