19
Iteration:  4737
 C         1.145937         2.246303         1.634292
 C         1.886113         0.916435         1.675035
 C         1.853152         0.137577         2.921420
 C         2.222079        -1.204475         2.111880
 O         0.989351        -1.320373         1.195957
 C         1.500272        -0.133369         0.480107
 C         0.999307        -0.006454        -0.904940
 C         3.016526        -0.465247         0.872791
 O         3.318231         0.856224         1.251330
 H         0.123767         1.893512         1.681529
 H         1.473621         3.032269         2.405399
 H         1.352305         2.719903         0.655861
 H         2.656401         0.406935         3.648884
 H         0.921695         0.239137         3.490553
 H         2.296025        -2.247366         2.552852
 H         0.856746        -1.113403        -1.310837
 H         0.033253         0.508302        -1.049267
 H         1.824692         0.413707        -1.523009
 H         3.649904        -0.866158         0.141944
