19
Iteration:  4113charge 0 multiplicity 1
 C         1.519105         2.353066         1.468624
 C         1.859545         0.937141         1.567024
 C         1.771697         0.140465         2.902895
 C         2.059281        -1.206931         2.171834
 O         0.828700        -1.331800         1.334228
 C         1.469005        -0.221853         0.494815
 C         1.183124         0.138220        -0.905132
 C         2.906977        -0.597296         0.998383
 O         3.277058         0.737540         1.167052
 H         0.470175         2.668630         1.268496
 H         1.936204         3.089632         2.148722
 H         2.004397         2.579673         0.513361
 H         2.533524         0.502684         3.651995
 H         0.893510         0.052727         3.484017
 H         1.947774        -2.077063         2.795800
 H         1.681992        -0.466751        -1.691982
 H         0.121268         0.226309        -0.974514
 H         1.416899         1.202691        -0.894395
 H         3.654318        -1.346491         0.633343
