19
Iteration:  1666
 C         2.589713         2.331761         0.789318
 C         2.310380         0.944402         1.183277
 C         2.619451         0.406072         2.612087
 C         2.051991        -1.023923         2.373842
 O         0.674686        -0.578975         2.215769
 C         1.069050        -0.093561         0.917961
 C         0.125555         0.202653        -0.199152
 C         2.223257        -1.119364         0.836673
 O         3.163355        -0.065300         0.468497
 H         2.041604         2.991423         1.392210
 H         3.639471         2.450579         0.914993
 H         2.531297         2.621784        -0.271137
 H         3.684018         0.407926         2.768864
 H         2.029444         0.756882         3.447064
 H         2.205727        -1.884014         3.135617
 H        -0.479679         1.037340         0.081903
 H         0.586041         0.477890        -1.135556
 H        -0.308364        -0.801753        -0.327938
 H         2.350620        -2.086039         0.221998
