19
Iteration:  3767
 C         1.543162         2.408412         1.697542
 C         1.825042         0.945315         1.519662
 C         1.660060         0.158658         2.856538
 C         2.027159        -1.098545         2.148538
 O         0.897619        -1.373671         1.235581
 C         1.525238        -0.254028         0.452181
 C         1.162737        -0.024047        -0.937253
 C         2.918770        -0.597831         0.959399
 O         3.246771         0.800074         1.210677
 H         0.628196         2.640220         2.263086
 H         2.333794         2.812549         2.325121
 H         1.461997         2.873548         0.682843
 H         2.401348         0.446011         3.649793
 H         0.665490         0.129717         3.166199
 H         2.481773        -1.912734         2.742094
 H         1.380142        -0.895072        -1.595525
 H         0.235097         0.456281        -1.018696
 H         1.860075         0.760061        -1.273195
 H         3.868767        -1.148444         0.888378
