19
Iteration:   792
 C         2.598445         2.283559         0.778443
 C         2.356923         0.814803         1.114235
 C         2.668620         0.496527         2.671939
 C         2.052531        -0.946696         2.460828
 O         0.589988        -0.588711         2.175693
 C         1.079424        -0.181532         0.857747
 C         0.039165         0.329943        -0.101428
 C         2.292122        -1.145738         0.886640
 O         3.233074        -0.137231         0.366745
 H         2.080460         3.099031         1.381088
 H         3.672596         2.316592         0.816493
 H         2.379676         2.446065        -0.276775
 H         3.592897         0.517283         3.025125
 H         1.982555         1.121247         3.307652
 H         2.140262        -1.710095         3.203338
 H        -0.946945        -0.086289         0.057583
 H        -0.114303         1.386165        -0.013330
 H         0.251756         0.228871        -1.110839
 H         2.313221        -2.084203         0.249155
