19
Iteration:   421
 C         2.568679         2.310107         0.709167
 C         2.350239         0.876721         1.197272
 C         2.809375         0.320740         2.581256
 C         1.954636        -1.024477         2.440663
 O         0.568455        -0.602986         2.274337
 C         1.043344         0.006545         0.984571
 C         0.191067         0.239585        -0.204911
 C         2.191188        -1.073691         0.878540
 O         3.179722        -0.062597         0.431990
 H         1.655859         2.836610         0.750398
 H         3.456530         2.879747         1.049962
 H         2.761800         2.396129        -0.374568
 H         3.911899         0.165258         2.559395
 H         2.581350         0.874875         3.508117
 H         1.920861        -1.904869         3.194119
 H        -0.677926        -0.390708        -0.543675
 H        -0.232655         1.191881        -0.320806
 H         0.835764         0.139356        -1.111733
 H         2.073588        -1.967291         0.302093
