19
Iteration:  1476
 C         2.564977         2.327569         0.770030
 C         2.396892         0.909435         1.192853
 C         2.685248         0.438324         2.615758
 C         2.050021        -0.954894         2.452206
 O         0.571319        -0.586548         2.151159
 C         1.054709        -0.188528         0.847767
 C         0.047551         0.318347        -0.179913
 C         2.256896        -1.115679         0.863077
 O         3.249605        -0.171177         0.467894
 H         2.414743         2.989966         1.651450
 H         3.610203         2.498292         0.472147
 H         1.829186         2.569515         0.062402
 H         3.804029         0.361249         2.720968
 H         2.249980         1.179346         3.419441
 H         2.228848        -1.847105         3.090115
 H        -0.686683        -0.522231        -0.453117
 H        -0.523222         1.157887         0.395405
 H         0.482593         0.466047        -1.159694
 H         2.345070        -2.111261         0.494813
