19
Iteration:   790
 C         2.593394         2.282432         0.785434
 C         2.350335         0.818089         1.115467
 C         2.661119         0.495635         2.680498
 C         2.063359        -0.951796         2.456925
 O         0.577956        -0.595878         2.196849
 C         1.090140        -0.175798         0.870825
 C         0.034971         0.334077        -0.113521
 C         2.282119        -1.128639         0.882373
 O         3.236711        -0.141678         0.352514
 H         2.182325         3.040244         1.376506
 H         3.709305         2.374873         0.734464
 H         2.396337         2.486628        -0.274768
 H         3.627496         0.528081         3.087446
 H         1.988678         1.110384         3.211323
 H         2.164763        -1.732599         3.277188
 H        -0.992582        -0.136750         0.009666
 H        -0.109615         1.350672        -0.051194
 H         0.354301         0.228379        -1.184164
 H         2.304940        -2.106541         0.228739
