19
Iteration:  3575charge 0 multiplicity 1
 C         1.548537         2.548167         1.735082
 C         1.856195         0.979913         1.512168
 C         1.520704         0.123739         2.792968
 C         2.051227        -1.190857         2.147054
 O         1.012164        -1.318170         1.173796
 C         1.604762        -0.257114         0.365942
 C         1.000709        -0.163840        -0.916411
 C         3.018880        -0.551791         0.983985
 O         3.283384         0.779297         1.374692
 H         0.482046         2.660462         2.089099
 H         2.202966         3.259188         2.362915
 H         1.439114         2.945883         0.712708
 H         2.111164         0.473286         3.641910
 H         0.379494         0.116979         2.928709
 H         2.284856        -2.078472         2.699532
 H         1.129537        -1.102078        -1.426941
 H         0.014377         0.331274        -0.867205
 H         1.697792         0.530323        -1.466500
 H         3.904672        -0.933448         0.436611
