19
Iteration:  3059charge 0 multiplicity 1
 C         1.598021         2.408252         1.401207
 C         1.958843         0.997962         1.496285
 C         1.835133         0.185530         2.874367
 C         2.090224        -1.182078         2.222308
 O         0.902372        -1.278963         1.400172
 C         1.469261        -0.146292         0.524290
 C         0.712392         0.032324        -0.807540
 C         2.891723        -0.721310         0.952174
 O         3.444220         0.688183         1.152928
 H         2.398450         3.079384         0.966019
 H         0.752329         2.529829         0.743546
 H         1.256916         2.711845         2.369464
 H         2.505980         0.541599         3.689462
 H         0.772616         0.460384         3.128963
 H         2.357608        -2.157150         2.638317
 H        -0.081892        -0.723752        -0.797387
 H         0.312013         1.060747        -1.013260
 H         1.463426        -0.175944        -1.684429
 H         3.639524        -1.326415         0.492856
