19
Iteration:  2021
 C         2.341033         2.370323         0.971799
 C         2.378727         0.927343         1.267560
 C         2.601764         0.379783         2.757970
 C         1.985286        -0.984400         2.395957
 O         0.584127        -0.743865         2.020950
 C         1.140189        -0.135476         0.836055
 C         0.186906         0.116558        -0.326166
 C         2.365611        -1.070788         0.860243
 O         3.336378         0.110472         0.476625
 H         1.348479         2.541712         0.545562
 H         2.601443         2.856892         1.854175
 H         3.094024         2.643744         0.259214
 H         3.566834         0.552482         3.083490
 H         1.805979         0.977036         3.322661
 H         2.138424        -1.822012         3.123139
 H         0.499277         0.912236        -1.027761
 H         0.148144        -0.771274        -1.000638
 H        -0.824821         0.377075        -0.090383
 H         2.472847        -1.935990         0.149957
