19
Iteration:  4662
 C         1.379592         2.465027         1.529847
 C         1.794240         0.971660         1.673172
 C         1.691931         0.101843         2.829777
 C         2.253326        -1.198124         2.175792
 O         1.129505        -1.528095         1.209317
 C         1.494367        -0.250060         0.508379
 C         0.859313         0.095924        -0.885215
 C         3.016280        -0.479060         0.896232
 O         3.257130         0.826680         1.296595
 H         0.346278         2.448595         1.288780
 H         1.436816         3.023135         2.472158
 H         2.090476         2.892460         0.795972
 H         2.220765         0.573512         3.699680
 H         0.699200        -0.187526         3.195150
 H         2.619083        -2.178137         2.549808
 H         1.762563         0.181836        -1.586759
 H         0.220539        -0.637544        -1.377578
 H         0.372346         1.075319        -0.918909
 H         3.766297        -1.017695         0.391022
