19
Iteration:  4820
 C         1.226501         2.479673         1.663067
 C         1.826055         0.970324         1.621356
 C         1.784143         0.048375         2.820313
 C         2.251413        -1.250610         2.032479
 O         1.067506        -1.354080         1.123713
 C         1.576710        -0.213123         0.498657
 C         0.866240        -0.137922        -0.840172
 C         3.099150        -0.481447         0.946441
 O         3.251516         0.920067         1.338521
 H         0.266998         2.666205         2.226051
 H         2.048396         3.086097         2.059020
 H         1.076803         2.605262         0.627345
 H         2.387179         0.216608         3.669464
 H         0.691551        -0.137827         2.950334
 H         2.275907        -2.132255         2.648578
 H        -0.179632        -0.303310        -0.662908
 H         1.054167         0.836742        -1.284776
 H         1.279729        -0.793641        -1.558779
 H         4.024377        -0.635719         0.359602
