19
Iteration:  4375
 C         1.422643         2.422276         1.743648
 C         1.942812         0.985093         1.588524
 C         1.731603         0.120612         2.863108
 C         2.062790        -1.138945         2.150615
 O         0.902127        -1.248711         1.225805
 C         1.555378        -0.294179         0.370378
 C         1.024606        -0.168682        -1.000875
 C         2.967780        -0.538659         0.965254
 O         3.329707         0.848925         1.216892
 H         0.410106         2.433452         2.311261
 H         1.888224         2.830924         2.662824
 H         1.295141         3.169930         0.992612
 H         2.296265         0.606590         3.685205
 H         0.654284         0.010208         3.155318
 H         2.130441        -2.081230         2.637007
 H         1.901064        -0.234664        -1.577818
 H         0.606049        -1.156454        -1.054749
 H         0.395887         0.730611        -1.178537
 H         3.809694        -1.113768         0.443639
