19
Iteration:  2318charge 0 multiplicity 1
 C         2.246281         2.421384         1.084296
 C         2.185704         0.896169         1.399391
 C         2.360167         0.359619         2.878403
 C         2.036485        -1.028059         2.329536
 O         0.671058        -0.933619         1.903297
 C         1.186363        -0.135881         0.731063
 C         0.378873         0.025600        -0.541297
 C         2.540570        -0.862624         0.825997
 O         3.280109         0.268535         0.629487
 H         1.343006         2.674182         0.540438
 H         2.252687         2.973974         2.051177
 H         3.092401         2.689417         0.353904
 H         3.368310         0.563419         3.376548
 H         1.622796         0.509050         3.582963
 H         2.242369        -1.954491         2.914760
 H         0.669335        -0.626097        -1.328596
 H        -0.694370        -0.122439        -0.455825
 H         0.478846         1.015644        -0.927937
 H         2.763951        -1.755961         0.220732
