19
Iteration:   222
 C         2.526714         2.238942         0.688700
 C         2.450756         0.874298         1.211107
 C         2.766619         0.353694         2.652542
 C         2.016820        -0.968287         2.422241
 O         0.521184        -0.559088         2.203469
 C         1.078911        -0.049538         0.966923
 C         0.031185         0.330187        -0.121530
 C         2.250664        -1.087438         0.790386
 O         3.270835        -0.141010         0.406344
 H         1.663843         2.755159         1.159294
 H         3.418543         2.799728         1.157702
 H         2.461395         2.315625        -0.403844
 H         3.801628         0.162025         2.777263
 H         2.306776         0.988033         3.402836
 H         2.183803        -1.731489         3.205969
 H        -0.824961        -0.284067        -0.007555
 H        -0.239827         1.340327        -0.096771
 H         0.430368         0.105729        -1.157824
 H         2.232968        -2.115085         0.224510
