19
Iteration:  3187charge 0 multiplicity 1
 C         1.410691         2.368441         1.417670
 C         1.959177         0.939223         1.562327
 C         1.820968         0.171744         2.796838
 C         2.131060        -1.134899         2.185734
 O         0.888252        -1.308424         1.328476
 C         1.484588        -0.296471         0.547797
 C         1.053162         0.137075        -0.754014
 C         2.899922        -0.647452         0.913922
 O         3.274118         0.739346         1.198464
 H         0.273146         2.278199         1.521404
 H         1.805043         3.073613         2.176150
 H         1.595105         2.805771         0.425820
 H         2.460590         0.661522         3.423717
 H         0.836511        -0.013476         3.338923
 H         2.497112        -1.959675         2.851934
 H         1.853341         0.362224        -1.369656
 H         0.586120        -0.762249        -1.173169
 H         0.331918         0.946674        -0.689931
 H         3.631772        -1.298904         0.358021
