19
Iteration:  3769charge 0 multiplicity 1
 C         1.525558         2.399082         1.678607
 C         1.836902         0.943875         1.529667
 C         1.657234         0.153922         2.858612
 C         2.043831        -1.091956         2.164021
 O         0.893089        -1.371598         1.246846
 C         1.515563        -0.241480         0.449658
 C         1.165450        -0.009239        -0.938826
 C         2.934936        -0.615877         0.955044
 O         3.249469         0.797821         1.203489
 H         0.611256         2.612849         2.241164
 H         2.318573         2.809587         2.318633
 H         1.464406         2.873102         0.736618
 H         2.370046         0.425156         3.586158
 H         0.606725         0.163272         3.180093
 H         2.401334        -1.945538         2.706488
 H         1.336089        -0.842232        -1.616628
 H         0.171541         0.434767        -1.062448
 H         1.965939         0.769576        -1.186770
 H         3.893641        -1.140189         0.859993
