19
Iteration:   980
 C         2.656587         2.231628         0.670443
 C         2.343034         0.842259         1.087728
 C         2.579134         0.509774         2.637362
 C         2.039612        -1.010652         2.420948
 O         0.615534        -0.665240         2.177704
 C         1.067161        -0.133332         0.952063
 C         0.106728         0.404635        -0.035360
 C         2.296688        -1.141306         0.846958
 O         3.176062        -0.119533         0.414648
 H         2.498567         3.092436         1.395790
 H         3.744584         2.244113         0.588430
 H         1.991207         2.734589        -0.094511
 H         3.581217         0.665957         2.960809
 H         1.942224         1.149204         3.240917
 H         2.070620        -1.806107         3.296619
 H        -0.374373        -0.437585        -0.479085
 H        -0.573321         1.132443         0.493504
 H         0.716030         0.895095        -0.857990
 H         2.234454        -2.122947         0.354450
