19
Iteration:  3697
 C         1.467340         2.393029         1.505671
 C         1.865398         0.962629         1.528472
 C         1.676413         0.094556         2.857729
 C         1.992751        -1.165829         2.141458
 O         0.961176        -1.268179         1.187217
 C         1.593132        -0.201902         0.483069
 C         0.989973         0.030248        -0.866957
 C         3.042428        -0.571794         0.992840
 O         3.331832         0.742976         1.374731
 H         0.378117         2.495266         1.722706
 H         1.873953         2.992621         2.346996
 H         1.628937         2.801412         0.490137
 H         2.352451         0.485253         3.606878
 H         0.557455         0.030486         3.090701
 H         2.184125        -2.151652         2.558485
 H         1.305982        -0.887069        -1.358313
 H        -0.125619         0.008037        -0.827436
 H         1.487224         0.799885        -1.467008
 H         3.728870        -1.216025         0.477904
