19
Iteration:   399charge 0 multiplicity 1
 C         2.519199         2.289208         0.803591
 C         2.413722         0.831247         1.208684
 C         2.619540         0.410377         2.691923
 C         2.068961        -0.941458         2.396028
 O         0.651868        -0.515943         2.222066
 C         1.109960        -0.059803         0.957863
 C         0.259942         0.304404        -0.154788
 C         2.170901        -1.114815         0.807548
 O         3.118666        -0.207004         0.313470
 H         1.565818         2.730621         0.985405
 H         3.463837         2.818596         1.110179
 H         2.555578         2.383846        -0.295298
 H         3.653521         0.382405         3.095363
 H         1.986772         1.042650         3.312290
 H         2.266367        -1.857525         3.059229
 H        -0.714634        -0.250979        -0.093021
 H        -0.119551         1.260582        -0.221557
 H         0.553068        -0.003201        -1.176315
 H         2.081545        -2.133645         0.466990
