19
Iteration:  2390
 C         2.020523         2.394970         1.094210
 C         2.230066         0.935559         1.308790
 C         2.280520         0.351110         2.734768
 C         2.025841        -1.101227         2.302960
 O         0.659904        -0.932563         1.783583
 C         1.253463        -0.134979         0.719126
 C         0.398672         0.107399        -0.401413
 C         2.649271        -0.940956         0.838552
 O         3.423155         0.272187         0.779154
 H         1.742929         2.754538         2.084134
 H         2.993578         2.767576         0.918969
 H         1.194700         2.619594         0.445402
 H         3.190948         0.639990         3.278116
 H         1.427826         0.758165         3.371677
 H         2.046947        -1.896601         3.044913
 H        -0.701216         0.019615        -0.151233
 H         0.410072         1.186463        -0.742558
 H         0.600260        -0.410868        -1.329825
 H         3.046370        -1.779940         0.248608
