19
Iteration:  4575charge 0 multiplicity 1
 C         1.242396         2.295291         1.634438
 C         1.820646         0.955204         1.584700
 C         1.816484         0.132206         2.859646
 C         2.147786        -1.154243         2.161835
 O         0.923083        -1.366137         1.270259
 C         1.526580        -0.264199         0.530023
 C         1.160509         0.090652        -0.895830
 C         3.023849        -0.584941         0.912734
 O         3.238227         0.837931         1.140336
 H         0.250856         2.323281         2.086059
 H         2.029330         2.872066         2.241484
 H         1.034824         2.998979         0.737937
 H         2.481056         0.554987         3.644051
 H         0.746038         0.165717         3.269192
 H         2.389348        -2.142596         2.614034
 H         0.941340         1.211269        -0.965012
 H         2.081267        -0.128696        -1.438368
 H         0.412708        -0.563995        -1.241434
 H         3.774737        -1.039489         0.364626
