19
Iteration:   151charge 0 multiplicity 1
 C         2.563776         2.234936         0.795171
 C         2.493738         0.859145         1.202659
 C         2.755347         0.390123         2.655775
 C         1.974898        -0.929338         2.410404
 O         0.568726        -0.501890         2.129187
 C         1.127782        -0.026469         0.869462
 C        -0.013711         0.250341        -0.094460
 C         2.240248        -1.112041         0.856846
 O         3.242735        -0.170321         0.380648
 H         2.101270         2.936378         1.543632
 H         3.625178         2.545327         0.638872
 H         2.036067         2.298067        -0.207844
 H         3.910432         0.220144         2.794344
 H         2.254383         0.941078         3.499507
 H         1.989715        -1.677973         3.184117
 H        -0.622801        -0.691312        -0.163223
 H        -0.768996         1.149394         0.335880
 H         0.147625         0.503708        -1.162467
 H         2.209899        -2.031681         0.367064
