19
Iteration:  3380charge 0 multiplicity 1
 C         1.377883         2.354437         1.525941
 C         1.903464         0.960717         1.572911
 C         1.692307         0.125797         2.810799
 C         1.983047        -1.139070         2.148382
 O         1.001702        -1.312384         1.125054
 C         1.627535        -0.307211         0.382298
 C         0.974112        -0.016799        -0.927160
 C         3.013743        -0.567073         1.047461
 O         3.367434         0.851063         1.461616
 H         0.920863         2.600706         0.552343
 H         0.434488         2.464210         2.146213
 H         2.132053         3.029611         1.958032
 H         2.300261         0.474130         3.643897
 H         0.646992         0.211427         3.314554
 H         2.193082        -2.037088         2.740139
 H         0.118347        -0.684686        -1.157405
 H         0.506046         1.030484        -0.892787
 H         1.673402         0.023434        -1.817109
 H         3.897054        -1.217289         0.733728
