19
Iteration:  3283
 C         1.414096         2.390951         1.575441
 C         1.917853         1.014708         1.617619
 C         1.712743         0.220107         2.839082
 C         2.107782        -1.150462         2.147173
 O         0.922235        -1.373306         1.228141
 C         1.517397        -0.261806         0.465848
 C         1.025721        -0.035939        -0.889102
 C         2.994033        -0.598125         0.946043
 O         3.343113         0.821483         1.281193
 H         2.017628         3.234755         1.937167
 H         1.229445         2.619703         0.515228
 H         0.489505         2.351708         2.110757
 H         2.110401         0.534255         3.779492
 H         0.588414         0.026843         3.075858
 H         2.155830        -2.177579         2.505085
 H         0.673293        -1.005565        -1.305195
 H         0.103944         0.625225        -0.940029
 H         1.884933         0.384285        -1.458375
 H         3.816108        -1.271596         0.543398
