19
Iteration:  1168charge 0 multiplicity 1
 C         2.570844         2.288498         0.700841
 C         2.471293         0.866204         1.195181
 C         2.722264         0.413292         2.590676
 C         1.977143        -0.965289         2.401392
 O         0.574570        -0.559169         2.120169
 C         1.071255        -0.119404         0.899897
 C        -0.049355         0.337953        -0.078193
 C         2.302122        -1.125341         0.875998
 O         3.292383        -0.164632         0.478099
 H         1.753130         2.842177         1.212052
 H         3.549210         2.787035         1.072142
 H         2.277392         2.324431        -0.369110
 H         3.898115         0.239596         2.800873
 H         2.264301         1.037039         3.305738
 H         1.979248        -1.763713         3.056150
 H        -0.416373        -0.572281        -0.632401
 H        -0.887202         0.669498         0.584683
 H         0.160587         1.183308        -0.861885
 H         2.335211        -2.083156         0.569443
