19
Iteration:  4982
 C         1.405430         2.479504         1.709215
 C         1.771624         0.999584         1.628097
 C         1.734383         0.085335         2.795382
 C         2.265462        -1.193191         2.072749
 O         1.140240        -1.481254         1.155252
 C         1.485750        -0.287957         0.495384
 C         0.825134        -0.042746        -0.908444
 C         2.990251        -0.448305         0.972787
 O         3.246522         0.860685         1.282990
 H         0.427205         2.763978         2.194208
 H         2.203689         2.997793         2.217666
 H         1.180034         2.934633         0.774731
 H         2.487293         0.397404         3.515113
 H         0.701325         0.057670         3.223130
 H         2.695138        -2.001384         2.657669
 H        -0.132848        -0.577770        -1.084351
 H         0.712900         1.050321        -1.160803
 H         1.489052        -0.490125        -1.677231
 H         3.899807        -0.871687         0.480220
