19
Iteration:  4565
 C         1.332750         2.318676         1.655618
 C         1.821794         0.920486         1.595247
 C         1.774829         0.083166         2.945131
 C         2.117682        -1.196985         2.178498
 O         0.935903        -1.386793         1.298784
 C         1.547698        -0.245953         0.471253
 C         1.220150         0.035136        -0.948787
 C         2.893374        -0.502779         0.902251
 O         3.225270         0.922227         1.082300
 H         0.391730         2.200000         2.209791
 H         1.934316         2.861835         2.423250
 H         1.302263         2.869524         0.641403
 H         2.599783         0.472317         3.613031
 H         0.801296         0.198448         3.452237
 H         2.470811        -2.047869         2.811124
 H         0.741075         1.041331        -1.075963
 H         2.078286         0.052040        -1.584428
 H         0.506889        -0.644010        -1.324018
 H         3.674387        -1.068482         0.475593
