19
Iteration:   216charge 0 multiplicity 1
 C         2.572148         2.192157         0.679820
 C         2.437673         0.834577         1.221657
 C         2.767072         0.400961         2.655314
 C         1.999461        -0.952120         2.475192
 O         0.544748        -0.620416         2.180111
 C         1.041827        -0.075841         0.972044
 C         0.059148         0.356754        -0.157942
 C         2.272566        -1.066825         0.811790
 O         3.199504        -0.092892         0.387830
 H         1.651713         2.663040         1.057179
 H         3.462615         2.637213         1.026716
 H         2.499077         2.430145        -0.393617
 H         3.871799         0.040233         2.687650
 H         2.351796         0.993878         3.491560
 H         2.204604        -1.642903         3.286731
 H        -0.910969        -0.207421         0.033514
 H        -0.101441         1.532894         0.084896
 H         0.491825         0.013485        -1.096567
 H         2.335433        -1.888725         0.182058
