19
Iteration:   430charge 0 multiplicity 1
 C         2.586156         2.296647         0.702926
 C         2.366425         0.897170         1.242300
 C         2.817923         0.312054         2.626111
 C         1.945072        -0.948325         2.429300
 O         0.583745        -0.579929         2.244602
 C         0.998594        -0.079651         0.974753
 C         0.114609         0.261999        -0.257457
 C         2.200330        -1.034472         0.846824
 O         3.189480        -0.078082         0.460509
 H         1.746449         2.825855         0.820355
 H         3.395265         2.783479         1.207695
 H         2.704026         2.035097        -0.297566
 H         3.806192        -0.051914         2.350041
 H         2.779117         0.950533         3.427256
 H         2.163954        -1.831197         3.078270
 H        -0.562663        -0.632157        -0.365577
 H        -0.400596         1.177607        -0.159401
 H         0.913747         0.318196        -1.121535
 H         2.290321        -2.069209         0.352833
