19
Iteration:  4898charge 0 multiplicity 1
 C         1.177791         2.232299         1.533598
 C         1.751667         0.827298         1.650390
 C         1.908582         0.100387         2.908036
 C         2.291656        -1.211550         2.123784
 O         1.054471        -1.409689         1.261271
 C         1.499604        -0.251122         0.578334
 C         1.055397         0.248144        -0.817626
 C         2.962386        -0.543306         0.867460
 O         3.175145         0.938832         1.115358
 H         0.170655         2.173273         1.107599
 H         0.991479         2.760963         2.539037
 H         1.836790         2.835193         0.910729
 H         2.650780         0.512074         3.596275
 H         0.974825        -0.139888         3.414160
 H         2.579675        -2.051353         2.833424
 H         0.407448         1.144019        -0.929242
 H         1.976841         0.530242        -1.268523
 H         0.770756        -0.577266        -1.396375
 H         3.784380        -1.037939         0.372216
