19
Iteration:  1753
 C         2.516228         2.341887         0.678133
 C         2.455342         0.895393         1.230305
 C         2.611382         0.383385         2.720474
 C         2.044846        -1.037565         2.468904
 O         0.610407        -0.725290         2.152985
 C         1.109349        -0.063419         0.856465
 C         0.059915         0.279157        -0.239971
 C         2.267401        -1.050756         0.905628
 O         3.261021        -0.032851         0.450247
 H         3.002105         3.015578         1.386656
 H         3.023253         2.424431        -0.295886
 H         1.433046         2.749331         0.670109
 H         3.648171         0.331908         3.107130
 H         1.957966         0.812707         3.502833
 H         2.160491        -1.912187         3.251682
 H         0.313683         1.258796        -0.777489
 H         0.039188        -0.466100        -1.070518
 H        -1.004463         0.369025         0.241834
 H         2.282299        -1.996124         0.235650
