19
Iteration:   311
 C         2.703375         2.251170         0.660846
 C         2.340860         0.899411         1.251114
 C         2.603021         0.470107         2.625533
 C         2.055588        -1.015592         2.349593
 O         0.623313        -0.599046         2.257847
 C         1.041479        -0.069910         0.989523
 C         0.106039         0.258622        -0.141491
 C         2.180495        -1.044660         0.831222
 O         3.178315        -0.142071         0.405723
 H         2.382848         3.147480         1.306912
 H         3.870794         2.220237         0.709890
 H         2.344871         2.353844        -0.387471
 H         3.660096         0.504612         2.944398
 H         1.920588         0.900716         3.282276
 H         2.215277        -1.855145         3.001634
 H        -0.044033        -0.638546        -0.735825
 H        -0.732324         0.676209         0.221590
 H         0.729851         1.019233        -0.729263
 H         2.016183        -2.024234         0.318767
