19
Iteration:  2732charge 0 multiplicity 1
 C         1.882205         2.501169         1.187697
 C         2.115701         0.963790         1.478572
 C         2.046677         0.232951         2.904948
 C         2.092212        -1.153863         2.186078
 O         0.714663        -1.125049         1.611208
 C         1.386028        -0.214149         0.615754
 C         0.536518         0.017435        -0.635851
 C         2.701525        -0.780735         0.861235
 O         3.430991         0.524286         1.005754
 H         2.278591         3.270214         1.921182
 H         2.222418         2.738252         0.140469
 H         0.790665         2.703840         1.311479
 H         3.042861         0.447620         3.264254
 H         1.209739         0.547760         3.651205
 H         2.304098        -2.163426         2.541004
 H         1.123977         0.297852        -1.483498
 H         0.061224        -0.932546        -0.957827
 H        -0.196897         0.887284        -0.413125
 H         3.283863        -1.545046         0.315171
