19
Iteration:  1602
 C         2.463700         2.349679         0.726012
 C         2.366745         0.841549         1.185832
 C         2.613912         0.359721         2.574595
 C         2.036514        -0.993100         2.444662
 O         0.602087        -0.505937         2.204690
 C         1.089405        -0.137919         0.841819
 C        -0.014400         0.356548        -0.101259
 C         2.334952        -1.118609         0.839069
 O         3.385635        -0.183289         0.438766
 H         1.538102         2.871700         0.554024
 H         3.056434         2.816265         1.572444
 H         3.256920         2.418409        -0.111740
 H         3.765880         0.381363         2.957351
 H         2.020218         0.746794         3.389134
 H         2.225144        -1.859376         3.251585
 H        -0.919539         0.333730         0.575491
 H         0.025988         1.305034        -0.578452
 H        -0.138060        -0.259868        -1.088153
 H         2.247738        -2.185627         0.393171
