19
Iteration:   739
 C         2.574116         2.267604         0.744297
 C         2.343169         0.892029         1.240843
 C         2.777901         0.295967         2.657113
 C         1.986152        -0.963943         2.459502
 O         0.554003        -0.455461         2.221228
 C         1.049041        -0.077452         0.931257
 C         0.151015         0.173024        -0.237115
 C         2.241273        -1.045117         0.884953
 O         3.191674        -0.101535         0.363346
 H         2.642915         3.097612         1.579629
 H         3.418599         2.368643         0.124557
 H         1.815880         2.537862        -0.003623
 H         3.840330         0.036557         2.540306
 H         2.580823         0.812992         3.712286
 H         1.986577        -1.696348         3.205552
 H        -0.160921        -0.802203        -0.610153
 H        -0.867346         0.681398        -0.029774
 H         0.495183         0.747068        -1.030548
 H         2.406204        -1.934745         0.334105
