19
Iteration:  3703
 C         1.468193         2.401847         1.548089
 C         1.917082         0.961462         1.565563
 C         1.629412         0.118555         2.861382
 C         2.024892        -1.212078         2.146762
 O         0.939445        -1.244417         1.150019
 C         1.585206        -0.156744         0.486277
 C         0.992542        -0.060474        -0.902143
 C         3.021967        -0.596461         0.921819
 O         3.330903         0.789876         1.410553
 H         0.415343         2.577964         1.743267
 H         2.067987         3.007557         2.248630
 H         1.672881         2.764944         0.545754
 H         2.258656         0.525285         3.668250
 H         0.591304        -0.005439         3.149773
 H         2.352867        -2.057850         2.793295
 H         1.082846        -0.997693        -1.528867
 H        -0.098266        -0.091674        -0.802982
 H         1.451156         0.797943        -1.444679
 H         3.795108        -1.273633         0.463626
