19
Iteration:  2395charge 0 multiplicity 1
 C         2.032911         2.460858         1.087448
 C         2.206763         0.912154         1.299465
 C         2.241353         0.400510         2.749504
 C         2.034749        -1.156320         2.264263
 O         0.661006        -0.959406         1.806040
 C         1.287791        -0.131593         0.723824
 C         0.385214         0.126411        -0.422607
 C         2.627361        -0.913069         0.850633
 O         3.424047         0.247735         0.794858
 H         1.846822         2.848196         2.108261
 H         3.008497         2.967651         0.769355
 H         1.168371         2.724668         0.413118
 H         3.289162         0.520273         3.202711
 H         1.498070         0.612119         3.486857
 H         2.135711        -2.000954         2.979984
 H        -0.617964         0.034433        -0.071595
 H         0.513793         1.107115        -0.860190
 H         0.529535        -0.606489        -1.256250
 H         3.051814        -1.771847         0.320034
