19
Iteration:  4409charge 0 multiplicity 1
 C         1.286380         2.415969         1.629249
 C         1.847958         1.012706         1.583184
 C         1.859767         0.173040         2.843674
 C         2.100921        -1.178035         2.143186
 O         0.908286        -1.330719         1.233790
 C         1.533601        -0.196701         0.449073
 C         1.138701        -0.045815        -0.912055
 C         2.889411        -0.604031         0.942822
 O         3.324739         0.789511         1.273262
 H         0.250497         2.148960         2.024349
 H         2.006261         2.882578         2.367858
 H         1.285410         3.118927         0.802589
 H         2.692623         0.485764         3.490321
 H         0.927602         0.032650         3.510388
 H         2.233781        -2.145846         2.569700
 H         1.832937        -0.537401        -1.582148
 H         0.165234        -0.542455        -1.062881
 H         0.941449         0.898146        -1.411177
 H         3.638659        -1.160392         0.364338
