19
Iteration:  2452
 C         2.124087         2.529456         1.248696
 C         2.096279         0.985452         1.374022
 C         2.202220         0.332883         2.775719
 C         2.063401        -1.113074         2.269543
 O         0.664484        -0.998686         1.807498
 C         1.330558        -0.184808         0.643938
 C         0.423411        -0.041618        -0.502661
 C         2.620756        -0.889157         0.816666
 O         3.359072         0.358407         0.727690
 H         3.045822         2.877994         1.870189
 H         2.319004         2.786779         0.163721
 H         1.288520         3.182515         1.517205
 H         3.145925         0.555128         3.204618
 H         1.297021         0.446599         3.456064
 H         2.188400        -1.873525         3.025738
 H         0.376678         1.036320        -0.698121
 H         0.814223        -0.528042        -1.373864
 H        -0.578792        -0.462721        -0.191242
 H         2.972062        -1.768033         0.286467
