19
Iteration:  4968charge 0 multiplicity 1
 C         1.341819         2.385529         1.666046
 C         1.853254         0.962966         1.593837
 C         1.737467         0.112312         2.905449
 C         2.210736        -1.134718         2.151233
 O         1.085734        -1.457110         1.121281
 C         1.574898        -0.253141         0.390616
 C         0.772045        -0.073477        -0.888119
 C         3.055102        -0.479073         0.854209
 O         3.308341         0.942707         1.368359
 H         0.338569         2.392882         2.160990
 H         2.040150         2.960924         2.305440
 H         1.573492         2.734303         0.579445
 H         2.269944         0.573993         3.747148
 H         0.715202        -0.201865         3.249507
 H         2.405671        -2.047072         2.636724
 H        -0.186828        -0.436723        -0.597663
 H         0.628178         1.049052        -1.016473
 H         1.204032        -0.479355        -1.869003
 H         3.757288        -1.114627         0.223447
