19
Iteration:  3833charge 0 multiplicity 1
 C         1.290813         2.219776         1.260822
 C         1.951922         0.924539         1.622947
 C         1.816581         0.034816         2.921002
 C         1.966988        -1.210663         2.210275
 O         0.887881        -1.236048         1.244425
 C         1.658624        -0.133811         0.448041
 C         0.998255         0.227039        -0.841314
 C         3.008163        -0.604244         0.942642
 O         3.367549         0.732374         1.388851
 H         0.185566         2.219542         1.003945
 H         1.449354         2.907798         2.137762
 H         1.976438         2.601721         0.480925
 H         2.568016         0.496756         3.586529
 H         0.873279         0.267751         3.400360
 H         1.970231        -2.188997         2.608175
 H         0.841946        -0.687163        -1.370558
 H         0.174218         0.707165        -0.451608
 H         1.410729         1.017395        -1.469959
 H         3.756627        -1.330697         0.511161
