19
Iteration:  4983
 C         1.407409         2.486218         1.701872
 C         1.762766         1.009242         1.630141
 C         1.733055         0.079122         2.791774
 C         2.265497        -1.196067         2.066871
 O         1.143892        -1.483781         1.164976
 C         1.485723        -0.281700         0.489421
 C         0.833694        -0.039324        -0.904278
 C         2.985468        -0.446261         0.975241
 O         3.238166         0.854960         1.275210
 H         0.454042         2.731322         2.232166
 H         2.215412         2.991169         2.230803
 H         1.184219         2.928843         0.797101
 H         2.504171         0.364459         3.515144
 H         0.716327         0.074156         3.217303
 H         2.713103        -2.029886         2.661510
 H        -0.130530        -0.591712        -1.088076
 H         0.730788         1.026526        -1.168256
 H         1.516075        -0.475866        -1.629000
 H         3.887345        -0.853633         0.509165
