19
Iteration:  1756charge 0 multiplicity 1
 C         2.527725         2.385551         0.678091
 C         2.452939         0.912910         1.203567
 C         2.608262         0.391847         2.749263
 C         2.043408        -1.065783         2.465148
 O         0.600885        -0.726011         2.136729
 C         1.110616        -0.098539         0.884629
 C         0.076165         0.280352        -0.228287
 C         2.266090        -1.060178         0.898614
 O         3.244037        -0.031691         0.446363
 H         3.027136         2.994238         1.378621
 H         2.936256         2.404855        -0.330324
 H         1.548334         2.805970         0.676687
 H         3.714733         0.310830         3.038748
 H         1.963316         0.812874         3.439305
 H         2.082499        -1.824197         3.258631
 H         0.420238         1.136053        -0.779050
 H        -0.044948        -0.399559        -1.039624
 H        -0.927397         0.294042         0.241252
 H         2.309145        -1.931824         0.317008
