19
Iteration:  1947
 C         2.392701         2.402709         0.865442
 C         2.359327         0.976010         1.256069
 C         2.519242         0.390467         2.713411
 C         1.991193        -1.054112         2.358786
 O         0.593864        -0.699998         1.978474
 C         1.182063        -0.063184         0.847223
 C         0.133938         0.093504        -0.234368
 C         2.367492        -1.071561         0.851847
 O         3.376216         0.018467         0.578150
 H         1.656640         2.651484         0.096252
 H         2.391252         3.012619         1.780898
 H         3.440809         2.491833         0.445238
 H         3.592010         0.574193         3.004573
 H         1.803995         0.894562         3.449910
 H         2.067792        -1.954361         3.029028
 H        -0.710900         0.511896         0.390658
 H         0.337910         0.872042        -1.090545
 H        -0.258318        -0.786605        -0.748195
 H         2.380750        -2.011615         0.175578
