19
Iteration:  2278charge 0 multiplicity 1
 C         2.224363         2.435414         1.119399
 C         2.209381         1.014557         1.302786
 C         2.346261         0.415536         2.694606
 C         2.005147        -1.001191         2.275350
 O         0.657781        -0.919594         1.848211
 C         1.250750        -0.193315         0.729050
 C         0.219384         0.016967        -0.374379
 C         2.510196        -0.917427         0.786083
 O         3.440103         0.153039         0.755925
 H         2.303992         2.854700         0.078387
 H         1.291129         2.811648         1.618434
 H         3.096322         2.800260         1.611993
 H         3.387118         0.519566         3.043001
 H         1.565371         0.798697         3.458316
 H         2.172111        -1.765380         3.052124
 H         0.877458         0.194245        -1.280279
 H        -0.343782        -0.926363        -0.537028
 H        -0.398310         0.951038         0.001869
 H         2.872381        -1.785110         0.228064
