19
Iteration:   816charge 0 multiplicity 1
 C         2.566458         2.258062         0.688694
 C         2.397844         0.840076         1.149507
 C         2.679799         0.376297         2.585928
 C         1.981678        -0.980758         2.407293
 O         0.579354        -0.575604         2.105154
 C         1.135408        -0.034089         0.817974
 C        -0.049334         0.329813         0.027209
 C         2.313985        -1.093668         0.859909
 O         3.321951        -0.165897         0.541253
 H         1.511252         2.810560         0.867870
 H         3.369980         2.833847         1.114372
 H         2.594889         2.246966        -0.418003
 H         3.731788         0.177938         2.757861
 H         2.271734         1.128409         3.347202
 H         2.073965        -1.601879         3.244758
 H        -0.920238        -0.120473         0.355036
 H        -0.304850         1.438950        -0.113652
 H         0.051472         0.072749        -0.992862
 H         2.461739        -2.040057         0.398182
