19
Iteration:   660charge 0 multiplicity 1
 C         2.681699         2.186658         0.631594
 C         2.315955         0.893232         1.257515
 C         2.626119         0.414630         2.675593
 C         2.005523        -0.915722         2.438501
 O         0.580381        -0.649054         2.118305
 C         1.082723        -0.149412         0.929039
 C         0.027937         0.339804        -0.053506
 C         2.302218        -1.074941         0.837210
 O         3.193986        -0.062235         0.421586
 H         2.238400         3.085189         0.986119
 H         3.765741         2.387248         0.818312
 H         2.427870         2.221907        -0.438849
 H         3.652899         0.263487         2.773688
 H         2.216825         1.091001         3.439291
 H         2.223971        -1.821242         3.136871
 H        -0.547848        -0.487216        -0.559795
 H        -0.561199         1.024079         0.420191
 H         0.599668         0.816867        -0.842042
 H         2.645674        -2.096183         0.379622
