19
Iteration:   458charge 0 multiplicity 1
 C         2.646459         2.301003         0.763958
 C         2.419780         0.828711         1.118348
 C         2.673728         0.406337         2.676640
 C         1.972026        -1.000607         2.421320
 O         0.628671        -0.496890         2.146271
 C         1.126905        -0.038527         0.920299
 C         0.013049         0.234001        -0.135488
 C         2.218194        -1.141724         0.868252
 O         3.231256        -0.139513         0.395871
 H         1.701847         2.823274         1.299907
 H         3.527008         2.781654         1.242734
 H         2.560743         2.247430        -0.358617
 H         3.748957         0.528041         2.914252
 H         1.999669         1.087055         3.293524
 H         2.003723        -1.790245         3.113078
 H        -0.389390        -0.711714        -0.359471
 H        -0.742400         0.837631         0.480453
 H         0.400685         0.831356        -0.892887
 H         2.159786        -2.086195         0.329188
