19
Iteration:  3889charge 0 multiplicity 1
 C         1.683708         2.502939         1.676062
 C         1.760236         1.025109         1.582700
 C         1.587957         0.129813         2.905941
 C         2.050675        -1.125203         2.159974
 O         0.973374        -1.456542         1.226684
 C         1.560537        -0.219861         0.412854
 C         1.028416        -0.085340        -0.967137
 C         2.943181        -0.527404         0.985991
 O         3.264882         0.764257         1.194730
 H         0.602354         2.739426         1.937158
 H         2.310768         2.842357         2.586341
 H         1.920829         3.014068         0.777286
 H         2.269686         0.643381         3.517673
 H         0.547014         0.102277         3.358587
 H         2.252590        -2.036209         2.673656
 H         1.138162        -0.866275        -1.631642
 H         0.015011         0.217798        -0.953075
 H         1.678356         0.750826        -1.310983
 H         3.657462        -1.293338         0.557169
