19
Iteration:  4712charge 0 multiplicity 1
 C         1.151608         2.359095         1.708716
 C         1.861393         0.983008         1.601581
 C         1.905761         0.049277         2.814202
 C         2.193733        -1.162496         2.084406
 O         0.971816        -1.251051         1.275511
 C         1.520210        -0.168636         0.422289
 C         1.043810        -0.127339        -0.931913
 C         2.978285        -0.519053         0.921008
 O         3.302695         0.857018         1.258821
 H         0.005799         2.174924         1.529709
 H         1.246948         2.747402         2.786570
 H         1.603366         3.133311         1.108711
 H         2.660982         0.318068         3.509392
 H         0.956307        -0.024260         3.401629
 H         2.323332        -2.138530         2.484459
 H         1.513429        -0.862841        -1.604711
 H        -0.051275        -0.251770        -0.992026
 H         1.335626         0.858805        -1.274167
 H         3.744520        -1.164713         0.391923
