19
Iteration:  3218charge 0 multiplicity 1
 C         1.493895         2.456807         1.389033
 C         1.843015         0.992907         1.676814
 C         1.736254         0.100799         2.953170
 C         2.073838        -1.158146         2.202447
 O         0.998688        -1.387942         1.265046
 C         1.499553        -0.280810         0.522819
 C         0.948497         0.072547        -0.919871
 C         2.935917        -0.593527         0.943444
 O         3.328702         0.788641         1.211140
 H         0.926985         2.940289         2.183746
 H         2.429487         3.075840         1.427590
 H         0.983417         2.462307         0.450524
 H         2.438723         0.587154         3.568671
 H         0.739183        -0.170699         3.479287
 H         2.323844        -2.030276         2.833309
 H         1.668441        -0.240049        -1.697991
 H         0.064295        -0.596929        -1.089877
 H         0.642853         1.103917        -1.079569
 H         3.758030        -1.188665         0.430380
