19
Iteration:  1114charge 0 multiplicity 1
 C         2.598703         2.275804         0.667127
 C         2.452760         0.864380         1.211863
 C         2.668271         0.398182         2.639532
 C         2.035222        -0.952885         2.465720
 O         0.582498        -0.633384         2.194010
 C         1.066738        -0.193736         0.899858
 C         0.065400         0.363248        -0.077274
 C         2.231508        -1.119543         0.811405
 O         3.174843        -0.074476         0.402446
 H         1.626526         2.807334         0.662714
 H         3.395231         2.814636         1.362193
 H         2.981858         2.268448        -0.392976
 H         3.811336         0.228203         2.754869
 H         2.271462         0.957190         3.396134
 H         2.170923        -1.634119         3.231783
 H        -0.510657        -0.407570        -0.646407
 H        -0.620903         1.110517         0.322451
 H         0.569401         1.049699        -0.814032
 H         2.326399        -2.062970         0.503182
