19
Iteration:  1077
 C         2.595515         2.244826         0.874346
 C         2.408251         0.847078         1.160367
 C         2.655682         0.423878         2.561079
 C         2.074967        -0.907824         2.410132
 O         0.618197        -0.543291         2.200495
 C         1.073306        -0.049186         0.919437
 C         0.095715         0.250514        -0.179720
 C         2.169379        -1.138531         0.859958
 O         3.208447        -0.138105         0.350428
 H         1.782029         2.828293         1.409598
 H         3.484640         2.655112         1.345800
 H         2.565223         2.577611        -0.215715
 H         3.711282         0.385124         2.879595
 H         2.048792         1.063320         3.405058
 H         2.318422        -1.767497         3.180492
 H        -0.703695        -0.450369         0.088259
 H        -0.354660         1.271559        -0.000697
 H         0.492088        -0.055717        -1.194313
 H         2.122978        -2.216846         0.355109
