19
Iteration:  2621
 C         2.052283         2.613576         1.249822
 C         2.150666         1.079124         1.504302
 C         2.127228         0.314910         2.852557
 C         2.033867        -1.152794         2.186001
 O         0.674354        -1.128136         1.657867
 C         1.286613        -0.228826         0.699685
 C         0.477753        -0.097989        -0.625082
 C         2.717401        -0.854191         0.808980
 O         3.393021         0.454526         0.892385
 H         1.024803         2.768397         0.957282
 H         2.152049         3.172030         2.180042
 H         2.652093         2.848955         0.357774
 H         3.128525         0.503844         3.350735
 H         1.318698         0.555738         3.482990
 H         2.198283        -2.048331         2.820936
 H        -0.554882        -0.240425        -0.207175
 H         0.457433         0.900729        -1.147355
 H         0.781410        -0.765392        -1.434022
 H         3.192461        -1.564925         0.060566
