19
Iteration:  4300charge 0 multiplicity 1
 C         1.322241         2.302981         1.284227
 C         1.894568         0.902235         1.536550
 C         1.713422         0.123391         2.864894
 C         2.046813        -1.217804         2.236592
 O         0.978553        -1.297751         1.200422
 C         1.562277        -0.164517         0.563414
 C         0.951780         0.230232        -0.745027
 C         3.046506        -0.641772         0.959822
 O         3.404358         0.735478         1.335826
 H         0.151635         2.394347         1.323515
 H         1.658376         3.061842         2.082720
 H         1.695688         2.705798         0.326488
 H         2.486147         0.293194         3.661310
 H         0.583998         0.101520         3.041804
 H         2.187471        -2.222107         2.462858
 H         0.710628         1.256278        -0.620499
 H         1.686967        -0.011649        -1.511100
 H        -0.025162        -0.328558        -0.878457
 H         3.879075        -1.230273         0.467007
