19
Iteration:  4846charge 0 multiplicity 1
 C         1.227758         2.288051         1.765184
 C         1.827882         0.925649         1.559285
 C         1.800596         0.117436         2.954089
 C         2.258466        -1.135020         2.106282
 O         1.016631        -1.359195         1.145405
 C         1.574070        -0.153275         0.429531
 C         0.957555        -0.132510        -0.988927
 C         2.925185        -0.432304         0.885398
 O         3.311240         0.921841         1.306116
 H         0.184465         2.164242         2.044572
 H         1.790985         2.757806         2.663753
 H         1.301216         2.761596         0.727861
 H         2.652184         0.472962         3.616575
 H         0.818867         0.040980         3.389928
 H         2.636144        -2.086722         2.615648
 H        -0.106031         0.228392        -0.792896
 H         1.458388         0.352599        -1.827158
 H         0.956872        -1.208490        -1.255264
 H         3.791411        -0.769966         0.393948
