19
Iteration:   227charge 0 multiplicity 1
 C         2.501027         2.294830         0.718520
 C         2.457818         0.867590         1.197663
 C         2.744267         0.326361         2.630283
 C         2.021439        -0.979790         2.391463
 O         0.543143        -0.518950         2.214263
 C         1.103884        -0.032041         0.930032
 C         0.039138         0.297597        -0.090277
 C         2.220796        -1.103691         0.789953
 O         3.299576        -0.173828         0.425639
 H         1.673555         2.855452         1.165199
 H         3.325833         2.845858         1.089392
 H         2.468881         2.217880        -0.376919
 H         3.865782         0.294392         2.871812
 H         2.290855         0.966044         3.418018
 H         2.087108        -1.826783         3.074008
 H        -0.853163        -0.384608         0.000561
 H        -0.409421         1.370398        -0.231523
 H         0.407039         0.201107        -1.111719
 H         2.170118        -2.069691         0.394323
