19
Iteration:  2971
 C         1.678744         2.493720         1.453809
 C         1.978127         0.948717         1.491063
 C         1.905971         0.227541         2.764720
 C         2.130598        -1.154773         2.262600
 O         0.826151        -1.213476         1.485063
 C         1.381141        -0.195699         0.586971
 C         0.799459         0.016239        -0.779975
 C         2.851588        -0.739720         0.944692
 O         3.363148         0.594738         0.997248
 H         1.570997         2.945914         2.455844
 H         2.326261         3.177974         0.927250
 H         0.804752         2.559319         0.866815
 H         2.629992         0.547885         3.469425
 H         0.880577         0.065464         3.267195
 H         2.276999        -1.969782         2.984402
 H         1.550756         0.007462        -1.525089
 H         0.076934        -0.808707        -1.029482
 H         0.302580         1.081231        -0.804333
 H         3.427785        -1.420282         0.320829
