19
Iteration:  1423charge 0 multiplicity 1
 C         2.599754         2.351428         0.623274
 C         2.465734         0.920090         1.201983
 C         2.665912         0.373801         2.705252
 C         1.977261        -0.953799         2.431577
 O         0.618838        -0.633939         2.185074
 C         1.073206        -0.091810         0.896578
 C         0.031463         0.280466        -0.150276
 C         2.204539        -1.075752         0.833537
 O         3.249846        -0.174034         0.456038
 H         2.381930         3.122338         1.404917
 H         3.660472         2.485058         0.400064
 H         1.952554         2.508974        -0.240094
 H         3.731293         0.468116         2.942929
 H         2.047417         0.889337         3.605373
 H         2.015082        -1.695738         3.239302
 H         0.074817        -0.579166        -0.885253
 H        -0.944931         0.395347         0.428611
 H         0.380463         1.185591        -0.640044
 H         2.155423        -2.072885         0.324519
