19
Iteration:  4157
 C         1.442309         2.370372         1.339901
 C         1.937725         0.963648         1.623034
 C         1.662348         0.150996         2.789129
 C         1.958541        -1.154390         2.171679
 O         0.932423        -1.239619         1.209528
 C         1.657931        -0.232027         0.463821
 C         0.908991         0.123294        -0.819587
 C         2.984355        -0.684506         1.044160
 O         3.460355         0.681837         1.388092
 H         0.538866         2.460698         2.031718
 H         2.148505         3.166300         1.621659
 H         1.081473         2.372369         0.318989
 H         2.265660         0.310904         3.759830
 H         0.614035         0.158585         3.050911
 H         2.191675        -2.065397         2.681791
 H         0.550154        -0.825705        -1.253987
 H         0.094030         0.804485        -0.629980
 H         1.458895         0.781816        -1.532979
 H         3.741009        -1.246423         0.386085
