19
Iteration:  3211charge 0 multiplicity 1
 C         1.471937         2.418541         1.351010
 C         1.828164         0.928988         1.669017
 C         1.715203         0.142752         2.959247
 C         2.103927        -1.219514         2.147364
 O         0.991421        -1.378512         1.341308
 C         1.455229        -0.223371         0.539889
 C         0.966479         0.106478        -0.916296
 C         2.973459        -0.587877         0.950740
 O         3.359606         0.787938         1.175743
 H         0.694018         2.816465         2.104461
 H         2.402313         2.908638         1.640550
 H         1.084801         2.691550         0.339770
 H         2.371888         0.571121         3.739477
 H         0.744399        -0.082557         3.399208
 H         2.315879        -2.004408         2.908935
 H         1.762652        -0.109602        -1.573039
 H         0.215495        -0.602885        -1.229900
 H         0.653376         1.164671        -0.994914
 H         3.552688        -1.255741         0.319846
