19
Iteration:   935charge 0 multiplicity 1
 C         2.613496         2.255498         0.677062
 C         2.458577         0.857580         1.216222
 C         2.743744         0.295327         2.651911
 C         1.935971        -0.991944         2.401361
 O         0.615009        -0.401857         2.137075
 C         1.129788         0.010456         0.913134
 C        -0.057685         0.183294        -0.041451
 C         2.228895        -1.098611         0.801887
 O         3.265199        -0.130038         0.467194
 H         1.733555         2.901276         0.855910
 H         3.405447         2.808922         1.037459
 H         2.451565         2.273800        -0.386903
 H         3.735417         0.271961         2.818008
 H         2.206994         0.753652         3.520749
 H         1.991168        -1.823194         3.149976
 H        -0.163639        -0.700928        -0.667195
 H        -1.025207         0.392027         0.486901
 H         0.100457         0.968640        -0.768915
 H         2.419763        -2.032156         0.187311
