19
Iteration:  4581charge 0 multiplicity 1
 C         1.187531         2.327851         1.640721
 C         1.843096         0.940687         1.527944
 C         1.814792         0.186294         2.823485
 C         2.160884        -1.165525         2.141956
 O         0.946013        -1.339341         1.251297
 C         1.511336        -0.271005         0.569025
 C         1.137906         0.120033        -0.858621
 C         3.056487        -0.597120         0.946546
 O         3.254448         0.788775         1.188334
 H         0.194489         2.403877         2.106440
 H         1.907465         2.944906         2.152685
 H         1.047232         2.781630         0.682408
 H         2.524047         0.486407         3.580532
 H         0.819039        -0.089371         3.164381
 H         2.369286        -2.120903         2.585673
 H         0.925319         1.173169        -0.984733
 H         2.002616        -0.212882        -1.484627
 H         0.249761        -0.455900        -1.265997
 H         3.793211        -1.153434         0.273084
