19
Iteration:  4033
 C         1.546936         2.474061         1.490278
 C         1.872980         0.934322         1.601751
 C         1.686630         0.140113         2.839277
 C         2.072069        -1.218795         2.110463
 O         0.894533        -1.280036         1.214463
 C         1.573875        -0.205074         0.480016
 C         0.929381        -0.016835        -0.852328
 C         3.018960        -0.556271         0.972233
 O         3.309021         0.739822         1.344722
 H         0.630100         2.658288         0.945117
 H         1.528672         2.908422         2.494956
 H         2.437308         2.913939         0.939175
 H         2.415476         0.441511         3.577266
 H         0.633491         0.182076         3.143044
 H         2.372665        -2.164941         2.662712
 H         0.705627        -1.020984        -1.110070
 H        -0.022844         0.515119        -0.832423
 H         1.579346         0.287021        -1.604949
 H         3.636993        -1.250080         0.477163
