19
Iteration:  1145charge 0 multiplicity 1
 C         2.516111         2.274044         0.566051
 C         2.463004         0.872141         1.207071
 C         2.610726         0.352863         2.710322
 C         2.006391        -1.045382         2.376141
 O         0.669474        -0.533668         2.178441
 C         1.155892        -0.011372         0.896178
 C        -0.003402         0.330848        -0.025563
 C         2.172807        -1.079948         0.739734
 O         3.317259        -0.170498         0.531741
 H         1.567353         2.798514         0.717230
 H         3.310329         2.830818         1.193317
 H         2.678555         2.226574        -0.547863
 H         3.803678         0.359386         2.885451
 H         2.073734         0.838687         3.512107
 H         2.070105        -1.820696         3.101875
 H        -0.224334        -0.597319        -0.581935
 H        -0.867898         0.601619         0.626959
 H         0.267320         1.144787        -0.832474
 H         2.049833        -1.997739         0.267149
