19
Iteration:  1464
 C         2.536805         2.238324         0.727260
 C         2.311677         0.821900         1.219799
 C         2.685668         0.438185         2.663417
 C         1.964167        -0.906941         2.445336
 O         0.657643        -0.626647         2.171747
 C         1.110066        -0.066061         0.891570
 C         0.058389         0.288080        -0.173544
 C         2.279253        -1.095704         0.814412
 O         3.248171        -0.130127         0.449210
 H         2.536336         3.011692         1.509411
 H         3.524432         2.169510         0.201624
 H         1.977565         2.572661        -0.104126
 H         3.812982         0.304728         2.923522
 H         2.170370         0.987394         3.501379
 H         2.071677        -1.715036         3.258298
 H        -0.637773        -0.526090        -0.575777
 H        -0.640462         1.150694         0.185889
 H         0.620671         0.958722        -0.835513
 H         2.285434        -1.987571         0.283544
