19
Iteration:  4318charge 0 multiplicity 1
 C         1.461013         2.349739         1.309633
 C         1.892024         0.968464         1.692937
 C         1.681490         0.075140         2.890235
 C         2.130661        -1.226141         2.104564
 O         0.936869        -1.382691         1.225675
 C         1.585107        -0.264956         0.495581
 C         0.982874         0.193413        -0.823052
 C         2.949924        -0.546757         1.023892
 O         3.290020         0.788064         1.308131
 H         0.374466         2.392480         1.428145
 H         1.881603         3.077882         1.960306
 H         1.832402         2.712081         0.340231
 H         2.475061         0.528758         3.537973
 H         0.712053        -0.099237         3.217003
 H         2.336770        -1.992603         2.882837
 H         1.082364         1.283897        -0.895595
 H         1.359699        -0.315993        -1.697608
 H        -0.067155        -0.148561        -0.761554
 H         3.770531        -1.073438         0.462276
