19
Iteration:  4932
 C         1.133444         2.305626         1.447551
 C         1.793686         0.977682         1.612904
 C         1.881533         0.045551         2.856485
 C         2.296788        -1.243809         2.084567
 O         1.006843        -1.405432         1.169396
 C         1.547076        -0.160478         0.510237
 C         0.825013         0.142770        -0.729856
 C         3.074338        -0.597861         0.925420
 O         3.400447         0.920351         1.323737
 H         0.122356         2.181267         1.096217
 H         1.165855         2.925581         2.415138
 H         1.532982         2.985917         0.617454
 H         2.518118         0.446513         3.689515
 H         0.903134        -0.205746         3.212049
 H         2.386902        -2.235457         2.691447
 H        -0.286753         0.275456        -0.651299
 H         1.297061         0.968183        -1.172076
 H         0.946313        -0.715180        -1.358676
 H         3.871841        -1.053729         0.418783
