19
Iteration:  1089charge 0 multiplicity 1
 C         2.607453         2.390041         0.845382
 C         2.354041         0.876327         1.127132
 C         2.696977         0.453082         2.522779
 C         2.049838        -0.964896         2.413348
 O         0.581268        -0.661952         2.215951
 C         1.100571        -0.082491         0.904174
 C         0.077963         0.295991        -0.116740
 C         2.218755        -1.110947         0.901284
 O         3.175491        -0.221037         0.387902
 H         1.734942         3.033412         1.155247
 H         3.540612         2.618901         1.415933
 H         2.872211         2.514856        -0.265090
 H         3.829770         0.544222         2.577124
 H         2.138413         1.083406         3.343648
 H         2.235911        -1.721878         3.267063
 H        -0.708441        -0.410369        -0.314064
 H        -0.332921         1.345716        -0.092101
 H         0.667568         0.437599        -1.118498
 H         2.207690        -2.175909         0.541947
