19
Iteration:  1633
 C         2.568779         2.263947         0.766486
 C         2.512431         0.884115         1.235349
 C         2.741689         0.427682         2.639721
 C         1.977400        -0.935908         2.461797
 O         0.597151        -0.612819         2.098502
 C         1.114081        -0.121329         0.926449
 C         0.071157         0.241073        -0.144386
 C         2.182068        -1.070244         0.779991
 O         3.178197        -0.058906         0.443156
 H         1.612723         2.685563         0.865660
 H         3.135532         2.797961         1.459116
 H         2.817284         2.258732        -0.299752
 H         3.760064         0.273679         2.929849
 H         2.311224         0.991461         3.483343
 H         2.157110        -1.715022         3.277906
 H        -0.894454         0.279926         0.289121
 H         0.276982         1.059885        -0.804639
 H        -0.256864        -0.648682        -0.697102
 H         2.232200        -2.067846         0.184090
