19
Iteration:  1688
 C         2.553792         2.262976         0.855783
 C         2.433142         0.909898         1.236321
 C         2.695427         0.479701         2.674462
 C         1.989687        -0.896980         2.460736
 O         0.550905        -0.683775         2.105502
 C         1.066777        -0.107614         0.930095
 C         0.032670         0.215346        -0.180334
 C         2.304186        -1.047453         0.818333
 O         3.257951        -0.108006         0.363182
 H         2.266890         2.816911         1.702450
 H         3.529407         2.497950         0.496934
 H         1.877205         2.550336         0.021866
 H         3.775330         0.413713         2.759252
 H         2.205424         1.099774         3.399270
 H         2.247039        -1.801978         3.129591
 H        -0.179728         1.259774        -0.254730
 H         0.519453         0.077901        -1.146809
 H        -0.806251        -0.513373        -0.153057
 H         2.280519        -2.087483         0.342176
