19
Iteration:  2431charge 0 multiplicity 1
 C         2.204315         2.358316         1.135883
 C         2.224287         0.985545         1.436480
 C         2.256814         0.363182         2.851395
 C         2.010938        -1.078569         2.319057
 O         0.678080        -1.057986         1.724020
 C         1.182876        -0.202773         0.750609
 C         0.353187         0.011109        -0.526525
 C         2.638890        -0.808242         0.801293
 O         3.321725         0.425835         0.745206
 H         2.575804         3.008743         2.036833
 H         2.827387         2.592232         0.231220
 H         1.251814         2.829053         0.898168
 H         3.209151         0.438272         3.297989
 H         1.396873         0.708740         3.563694
 H         2.229220        -1.975207         2.912419
 H        -0.241776         0.975310        -0.574388
 H         1.034922        -0.022810        -1.403956
 H        -0.272237        -0.958106        -0.535483
 H         3.108453        -1.584641         0.186030
