19
Iteration:  4889charge 0 multiplicity 1
 C         1.102250         2.337183         1.580211
 C         1.781197         0.918492         1.571475
 C         1.909731         0.036972         2.923819
 C         2.284375        -1.222929         2.145595
 O         0.950989        -1.475396         1.285306
 C         1.534502        -0.255442         0.578610
 C         1.147709         0.194471        -0.840701
 C         3.029929        -0.499050         0.896788
 O         3.183720         0.946050         1.085483
 H         0.086825         2.435059         1.237051
 H         1.242942         2.494272         2.701776
 H         1.815232         2.952070         0.963829
 H         2.625506         0.547628         3.617579
 H         0.948533        -0.199039         3.340943
 H         2.781638        -2.149498         2.580601
 H         0.362734         0.971696        -0.732300
 H         1.971318         0.488108        -1.447489
 H         0.627933        -0.631798        -1.323646
 H         3.488121        -1.112271         0.192797
