19
Iteration:  2008charge 0 multiplicity 1
 C         2.424270         2.410499         0.996708
 C         2.294716         0.901522         1.269712
 C         2.482003         0.454426         2.630473
 C         2.048330        -1.013102         2.381033
 O         0.661045        -0.744002         2.063353
 C         1.109100        -0.156355         0.837941
 C         0.232362         0.101709        -0.348868
 C         2.383487        -0.985760         0.783786
 O         3.223691         0.012405         0.557524
 H         1.478941         2.897520         0.601737
 H         2.514376         3.123856         1.850043
 H         3.190640         2.563749         0.257400
 H         3.543551         0.321308         2.796228
 H         2.059606         0.891312         3.570186
 H         2.161444        -1.817934         3.124743
 H         0.585909         1.085515        -0.646625
 H         0.445281        -0.616367        -1.089439
 H        -0.818658         0.100798        -0.050490
 H         2.558183        -1.964977         0.382182
