19
Iteration:   120
 C         2.595368         2.336308         0.777472
 C         2.461072         0.887733         1.160153
 C         2.765655         0.321485         2.548285
 C         1.914191        -0.969828         2.394683
 O         0.627222        -0.435650         2.261003
 C         1.114110        -0.079760         0.909030
 C         0.003626         0.197415        -0.172304
 C         2.187913        -1.164092         0.873770
 O         3.218706        -0.112305         0.446110
 H         2.013682         3.073503         1.406979
 H         3.732937         2.485791         0.688492
 H         2.193255         2.488106        -0.284215
 H         3.884332         0.074473         2.586527
 H         2.395804         0.834436         3.504365
 H         1.913620        -1.720051         3.216156
 H        -0.200044        -0.696039        -0.762062
 H        -0.930362         0.473629         0.342509
 H         0.364303         0.899214        -0.836062
 H         2.161425        -2.054587         0.275764
