19
Iteration:  2973
 C         1.679984         2.475660         1.457044
 C         1.964703         0.956188         1.485384
 C         1.880363         0.243599         2.784526
 C         2.141606        -1.160217         2.261340
 O         0.825844        -1.223565         1.490860
 C         1.371909        -0.183721         0.589009
 C         0.808462         0.015809        -0.777780
 C         2.854580        -0.746780         0.923871
 O         3.373953         0.592370         0.990922
 H         1.596934         2.923612         2.514509
 H         2.318523         3.147149         0.877513
 H         0.742331         2.564013         0.859361
 H         2.703267         0.586471         3.486360
 H         0.886659         0.127597         3.280099
 H         2.246574        -1.961313         2.989926
 H         1.576739        -0.001515        -1.536261
 H         0.069542        -0.762925        -1.031054
 H         0.416554         1.093874        -0.778928
 H         3.410101        -1.386520         0.285504
