19
Iteration:  1592
 C         2.527383         2.267919         0.742047
 C         2.378001         0.799461         1.165895
 C         2.580088         0.393441         2.639100
 C         2.048824        -0.991094         2.399640
 O         0.647297        -0.488211         2.241802
 C         1.098331        -0.156032         0.826744
 C        -0.022824         0.357887        -0.111660
 C         2.348803        -1.176754         0.786452
 O         3.290745        -0.125994         0.461330
 H         1.524622         2.708442         0.527366
 H         2.931389         2.933408         1.614210
 H         3.155193         2.490120        -0.195673
 H         3.738972         0.536465         2.942786
 H         1.908556         0.960507         3.244209
 H         2.129400        -1.722897         3.301208
 H        -1.028796         0.442331         0.420775
 H         0.307916         1.366944        -0.271327
 H        -0.090438        -0.270775        -1.079431
 H         2.482936        -2.124157         0.208350
