19
Iteration:  1409
 C         2.636084         2.229020         0.762705
 C         2.384328         0.813745         1.161990
 C         2.664718         0.454144         2.589362
 C         1.998550        -0.930258         2.511631
 O         0.603298        -0.574762         2.136517
 C         1.081935        -0.040406         0.903217
 C        -0.016747         0.271582        -0.129792
 C         2.285053        -1.095043         0.821912
 O         3.249754        -0.136194         0.477174
 H         2.171725         2.889065         1.504831
 H         3.717384         2.552305         0.635810
 H         2.142572         2.433290        -0.148549
 H         3.845688         0.148080         2.691612
 H         2.274741         1.241876         3.336736
 H         2.177626        -1.801745         3.268911
 H        -0.146810        -0.554904        -0.998818
 H        -1.098411         0.310774         0.240358
 H         0.075758         1.174919        -0.802400
 H         2.351093        -2.015512         0.344532
