19
Iteration:  4024charge 0 multiplicity 1
 C         1.552957         2.443230         1.447069
 C         1.865490         0.989685         1.537278
 C         1.664526         0.104183         2.861188
 C         2.122814        -1.163133         2.129346
 O         0.911851        -1.394793         1.217373
 C         1.478482        -0.197703         0.571023
 C         0.959736         0.056649        -0.834671
 C         2.936660        -0.586814         0.971110
 O         3.398406         0.757960         1.330805
 H         0.613283         2.603861         0.936749
 H         1.511409         2.982616         2.363803
 H         2.352831         2.766092         0.698176
 H         2.322008         0.398447         3.731598
 H         0.663980         0.003288         3.177250
 H         2.031282        -2.142496         2.637361
 H         0.637965        -0.922786        -1.282057
 H         0.116774         0.774323        -0.869712
 H         1.656415         0.478145        -1.501313
 H         3.749061        -1.064439         0.490409
