19
Iteration:  4114
 C         1.520940         2.348422         1.456913
 C         1.863711         0.936159         1.568373
 C         1.776459         0.135782         2.900093
 C         2.051280        -1.207081         2.167155
 O         0.831901        -1.335038         1.335827
 C         1.469678        -0.230279         0.494928
 C         1.180248         0.144038        -0.903354
 C         2.912317        -0.590981         1.001646
 O         3.275849         0.739328         1.176747
 H         0.474797         2.677894         1.279541
 H         1.938819         3.109202         2.110938
 H         1.959435         2.573990         0.511380
 H         2.522920         0.502379         3.637294
 H         0.886979         0.068009         3.505926
 H         1.936788        -2.049152         2.800644
 H         1.676469        -0.462395        -1.701268
 H         0.105632         0.239609        -0.949413
 H         1.428381         1.251839        -0.889074
 H         3.627938        -1.375885         0.600819
