19
Iteration:  2150
 C         2.336798         2.475424         1.077436
 C         2.317888         0.984859         1.304241
 C         2.519141         0.414620         2.781070
 C         2.023719        -1.011740         2.379932
 O         0.592682        -0.780481         1.923018
 C         1.224536        -0.203301         0.766431
 C         0.082020        -0.010450        -0.444346
 C         2.452518        -0.973353         0.786401
 O         3.394174         0.096443         0.599718
 H         2.522106         2.953726         2.115530
 H         3.122467         2.926780         0.401457
 H         1.312694         2.607652         0.696093
 H         3.526970         0.529646         3.085337
 H         1.894298         0.922957         3.633450
 H         1.989796        -1.868882         3.082504
 H        -0.706733        -0.742265        -0.198128
 H        -0.352718         0.996532        -0.407961
 H         0.405769        -0.129735        -1.489457
 H         2.593911        -1.927076         0.238830
