19
Iteration:  4948charge 0 multiplicity 1
 C         1.220326         2.308653         1.544817
 C         1.924028         0.916055         1.586605
 C         1.730138         0.036048         2.801278
 C         2.191996        -1.208409         2.044527
 O         1.104330        -1.287443         1.155583
 C         1.575924        -0.173026         0.534063
 C         0.774420         0.014256        -0.745268
 C         3.118330        -0.447783         0.981860
 O         3.325517         0.836240         1.297056
 H         0.105818         2.166128         1.543784
 H         1.442522         2.989933         2.335834
 H         1.586173         2.812969         0.624028
 H         2.421204         0.348379         3.573397
 H         0.690013        -0.038549         3.216581
 H         2.564806        -2.058293         2.527813
 H        -0.246998        -0.195509        -0.431046
 H         0.693522         1.052031        -1.215033
 H         1.080529        -0.757871        -1.515321
 H         3.961340        -1.001932         0.457803
