19
Iteration:  1185
 C         2.607794         2.219939         0.822748
 C         2.340251         0.784867         1.108447
 C         2.675867         0.442676         2.653570
 C         1.989710        -0.860034         2.524678
 O         0.621569        -0.599651         2.135128
 C         1.132336        -0.061407         0.816296
 C         0.025095         0.275626        -0.092517
 C         2.263841        -1.113086         0.876170
 O         3.213189        -0.125523         0.356792
 H         2.107384         2.923455         1.497635
 H         3.655137         2.269621         0.887752
 H         2.324440         2.543994        -0.199482
 H         3.692379         0.339845         2.704075
 H         2.271334         1.095990         3.507911
 H         2.162290        -1.658296         3.347516
 H        -0.412166        -0.558220        -0.588665
 H        -0.743236         0.912037         0.344765
 H         0.338734         1.030071        -0.772623
 H         2.393853        -2.125423         0.224097
