19
Iteration:  3748
 C         1.600481         2.560220         1.707254
 C         1.803521         1.047523         1.599407
 C         1.640394         0.146466         2.827208
 C         2.056431        -1.199915         2.181482
 O         0.960495        -1.382741         1.121095
 C         1.532482        -0.238257         0.439225
 C         1.080826        -0.167725        -0.983691
 C         2.939341        -0.583281         1.001506
 O         3.247201         0.818617         1.310282
 H         0.770582         2.834722         2.366409
 H         2.483086         2.867978         2.310928
 H         1.539033         3.095301         0.816967
 H         2.431055         0.445160         3.451222
 H         0.603906         0.192323         3.291167
 H         2.024406        -2.142694         2.644050
 H         1.181467        -1.133125        -1.499950
 H        -0.043624        -0.019893        -0.978895
 H         1.743356         0.580909        -1.526512
 H         3.682131        -1.031791         0.287895
