19
Iteration:  4573charge 0 multiplicity 1
 C         1.267169         2.296473         1.626372
 C         1.812068         0.952328         1.601656
 C         1.812319         0.106787         2.884549
 C         2.144504        -1.162524         2.167754
 O         0.918543        -1.375171         1.279783
 C         1.537797        -0.258168         0.506203
 C         1.172630         0.076603        -0.905173
 C         2.986536        -0.569519         0.901539
 O         3.236255         0.863905         1.120825
 H         0.316002         2.250017         2.125849
 H         2.022636         2.852802         2.291783
 H         1.094293         2.992179         0.782757
 H         2.445121         0.560009         3.630502
 H         0.747671         0.268650         3.328495
 H         2.398433        -2.095531         2.662869
 H         0.933988         1.206871        -0.977727
 H         2.140379        -0.074689        -1.480168
 H         0.423526        -0.626254        -1.251911
 H         3.785123        -1.017907         0.414019
