19
Iteration:   354
 C         2.576669         2.344845         0.702592
 C         2.388856         0.919327         1.198198
 C         2.697477         0.398603         2.602323
 C         1.912905        -0.928837         2.373268
 O         0.585267        -0.569283         2.066073
 C         1.117155        -0.107218         0.819584
 C         0.005413         0.292434         0.007823
 C         2.287959        -1.121417         0.907729
 O         3.290925        -0.217886         0.524652
 H         1.947964         2.909219         1.346382
 H         3.656077         2.569525         0.642281
 H         2.145475         2.467915        -0.271830
 H         3.790524         0.249472         2.494638
 H         2.482251         0.841314         3.491204
 H         2.025206        -1.680962         3.142891
 H        -0.840999        -0.385977        -0.082653
 H        -0.338985         1.160668         0.405167
 H         0.431120         0.476766        -1.063387
 H         2.411269        -2.151508         0.446189
