19
Iteration:  4727
 C         1.191420         2.222034         1.672268
 C         1.904327         0.989941         1.606332
 C         1.869683         0.142809         2.988104
 C         2.178067        -1.179989         2.046438
 O         0.935424        -1.301889         1.219530
 C         1.507809        -0.169510         0.505137
 C         1.039048        -0.050418        -0.986715
 C         2.982385        -0.485433         0.850133
 O         3.328191         0.860698         1.290446
 H         0.154827         2.016151         1.639351
 H         1.156022         2.760690         2.639462
 H         1.345522         2.894964         0.804152
 H         2.759068         0.505436         3.583042
 H         0.922714         0.026333         3.519091
 H         2.689704        -2.010656         2.616220
 H         1.148509        -1.185926        -1.273705
 H        -0.044365         0.153558        -0.994855
 H         1.527543         0.670561        -1.685172
 H         3.638674        -0.954417         0.148769
