19
Iteration:   562charge 0 multiplicity 1
 C         2.496659         2.306851         0.839023
 C         2.451527         0.860949         1.157231
 C         2.737020         0.389524         2.646118
 C         2.036232        -0.977480         2.463083
 O         0.569328        -0.519574         2.245311
 C         1.087643        -0.090426         0.893541
 C         0.116293         0.293012        -0.262776
 C         2.186458        -1.100358         0.861886
 O         3.225216        -0.187009         0.375067
 H         1.850559         2.938425         1.384356
 H         3.530920         2.755341         0.893570
 H         2.153889         2.545443        -0.191977
 H         3.810632         0.346001         2.784641
 H         2.326967         1.094662         3.439649
 H         2.204096        -1.884088         3.206392
 H        -0.788916        -0.448715        -0.286782
 H        -0.304781         1.309110        -0.202917
 H         0.644845         0.066037        -1.247413
 H         2.083482        -2.166685         0.460462
