19
Iteration:  3011
 C         1.577541         2.435793         1.358515
 C         2.003173         1.019223         1.493345
 C         1.966387         0.184395         2.883570
 C         2.092135        -1.187274         2.237963
 O         0.794064        -1.237954         1.419800
 C         1.447399        -0.238586         0.615874
 C         0.848243         0.063971        -0.803184
 C         2.851307        -0.736524         0.980993
 O         3.320851         0.653402         1.045327
 H         2.173987         3.156241         1.896620
 H         1.695137         2.686174         0.266454
 H         0.524686         2.438626         1.740757
 H         2.885030         0.466757         3.353200
 H         1.189894         0.358061         3.654370
 H         2.111661        -2.028621         2.965716
 H         1.237288        -0.617999        -1.593205
 H        -0.238610         0.201734        -0.899284
 H         1.160282         1.046808        -1.097733
 H         3.567414        -1.408248         0.404001
