19
Iteration:   871charge 0 multiplicity 1
 C         2.641582         2.292664         0.720521
 C         2.305952         0.861574         1.160805
 C         2.733621         0.447623         2.599640
 C         1.997538        -0.997278         2.449415
 O         0.592833        -0.603305         2.278494
 C         1.050859        -0.112989         0.907264
 C         0.166673         0.286780        -0.118834
 C         2.194825        -1.113414         0.867056
 O         3.163719        -0.103544         0.330018
 H         1.616142         2.856670         0.549208
 H         3.087024         2.707921         1.620333
 H         3.287974         2.250188        -0.185102
 H         3.844001         0.401019         2.552512
 H         2.398923         1.113803         3.414263
 H         2.074248        -1.739972         3.280648
 H        -0.590024        -0.377997        -0.371836
 H        -0.250986         1.311482         0.221250
 H         0.746044         0.354192        -1.052276
 H         2.149035        -2.113654         0.545190
