19
Iteration:  4110charge 0 multiplicity 1
 C         1.512221         2.374135         1.492069
 C         1.845375         0.939035         1.568611
 C         1.767704         0.153097         2.909231
 C         2.071995        -1.201052         2.190305
 O         0.822724        -1.317694         1.324332
 C         1.473077        -0.205743         0.504825
 C         1.188678         0.119700        -0.907758
 C         2.891761        -0.626446         0.985240
 O         3.281565         0.732815         1.143525
 H         0.465629         2.607668         1.261311
 H         1.938069         3.014981         2.292807
 H         2.123576         2.630877         0.529815
 H         2.551041         0.486529         3.642695
 H         0.818251         0.021170         3.431994
 H         2.056110        -2.177135         2.785810
 H         1.684203        -0.469611        -1.650879
 H         0.100611         0.157390        -1.081237
 H         1.435772         1.124616        -0.958791
 H         3.723701        -1.231500         0.686615
