19
Iteration:  2712
 C         1.797115         2.373087         1.217025
 C         2.062735         0.882000         1.489451
 C         2.214365         0.319277         2.822966
 C         1.996929        -1.078653         2.328662
 O         0.727827        -1.076690         1.577756
 C         1.341341        -0.138606         0.621514
 C         0.584435         0.069213        -0.617724
 C         2.790168        -0.811320         0.809993
 O         3.400429         0.453926         0.937598
 H         1.811984         3.057709         2.152186
 H         2.634087         2.663858         0.593968
 H         0.790577         2.442065         0.937218
 H         3.067303         0.476128         3.451834
 H         1.161592         0.339774         3.368175
 H         2.059248        -1.999354         2.886081
 H         1.034064         0.960407        -1.061867
 H         0.605069        -0.847484        -1.287515
 H        -0.528263         0.390834        -0.260706
 H         3.448563        -1.459640         0.248515
