19
Iteration:   990charge 0 multiplicity 1
 C         2.644009         2.256911         0.684821
 C         2.334210         0.802990         1.154751
 C         2.533295         0.478655         2.633202
 C         2.051802        -1.002599         2.434735
 O         0.645971        -0.619761         2.221700
 C         1.124168        -0.143457         0.919526
 C         0.174795         0.369601        -0.090473
 C         2.223447        -1.117939         0.905182
 O         3.147364        -0.094699         0.337333
 H         2.559743         2.715261         1.711574
 H         3.661425         2.325415         0.338579
 H         2.142490         2.722189        -0.213177
 H         3.477279         0.651787         3.037299
 H         1.682879         0.984160         3.220410
 H         2.328734        -1.943180         3.097117
 H        -0.715174        -0.205907        -0.343065
 H        -0.327058         1.250704         0.424560
 H         0.557613         0.768296        -1.050350
 H         2.474032        -2.136435         0.470819
