19
Iteration:  2598charge 0 multiplicity 1
 C         2.013360         2.399983         1.276627
 C         2.128529         0.957147         1.402808
 C         2.090349         0.389272         2.832498
 C         2.058276        -1.018525         2.293574
 O         0.780074        -1.082316         1.589664
 C         1.301683        -0.179908         0.647144
 C         0.356070        -0.007510        -0.577112
 C         2.700419        -0.842527         0.847554
 O         3.428928         0.409267         0.887218
 H         1.246099         2.852701         0.695938
 H         1.920285         2.632938         2.332137
 H         2.993993         2.733015         0.844864
 H         3.017214         0.555811         3.445161
 H         1.223239         0.677665         3.310016
 H         2.361704        -1.946453         2.829179
 H        -0.448261        -0.775715        -0.443867
 H        -0.089839         0.959576        -0.914575
 H         0.985282        -0.224192        -1.353882
 H         3.242011        -1.631103         0.283443
