19
Iteration:  1623charge 0 multiplicity 1
 C         2.534413         2.306765         0.758211
 C         2.461075         0.836213         1.232276
 C         2.730904         0.446850         2.637891
 C         1.966104        -0.926306         2.385048
 O         0.617189        -0.636313         2.074237
 C         1.126050        -0.006264         0.844767
 C         0.027964         0.230077        -0.054284
 C         2.252680        -1.104826         0.833951
 O         3.191370        -0.156499         0.496260
 H         1.516454         2.532653         0.759990
 H         3.046444         3.003576         1.398528
 H         2.990995         2.558121        -0.224007
 H         3.854907         0.266777         2.685647
 H         2.367235         1.121318         3.399103
 H         2.008992        -1.737391         3.219519
 H        -0.848435         0.450005         0.526619
 H         0.246223         1.128538        -0.596042
 H         0.107647        -0.489730        -0.885881
 H         2.149408        -2.106405         0.274572
