19
Iteration:   801
 C         2.595825         2.265899         0.737322
 C         2.383144         0.832669         1.151172
 C         2.632088         0.465734         2.607424
 C         1.992513        -0.902123         2.446387
 O         0.648463        -0.571010         2.096562
 C         1.091464        -0.170609         0.846882
 C         0.025690         0.345206        -0.046338
 C         2.309629        -1.160769         0.875739
 O         3.209191        -0.126707         0.448096
 H         1.939301         2.874791         1.291242
 H         3.631250         2.461712         1.091597
 H         2.394601         2.393235        -0.327113
 H         3.685031         0.490645         2.735483
 H         2.170974         0.947717         3.422447
 H         2.075951        -1.774182         3.143736
 H        -0.943995        -0.115321         0.339373
 H        -0.026569         1.357595         0.165802
 H         0.108173         0.105677        -1.118085
 H         2.446109        -2.254798         0.453361
