19
Iteration:   372
 C         2.502509         2.261981         0.806262
 C         2.418032         0.779624         1.075813
 C         2.691194         0.416632         2.550949
 C         1.994472        -0.937999         2.491712
 O         0.584346        -0.542872         2.154449
 C         1.111196        -0.118166         0.854197
 C         0.039562         0.380744        -0.120324
 C         2.284045        -1.158587         0.875811
 O         3.295763        -0.172238         0.469711
 H         1.827511         2.815527         1.481000
 H         3.501252         2.593934         1.011579
 H         2.341628         2.671574        -0.191121
 H         3.739697         0.390696         2.826759
 H         2.212372         1.163257         3.240590
 H         2.126807        -1.667279         3.252783
 H        -0.873405        -0.204199        -0.003830
 H        -0.370611         1.452670         0.089234
 H         0.147591         0.356200        -1.198802
 H         2.344555        -2.192237         0.430646
