19
Iteration:    70
 C         2.701448         2.308062         0.677902
 C         2.374227         0.886201         1.140038
 C         2.651195         0.396955         2.517570
 C         2.009369        -1.000895         2.489289
 O         0.566828        -0.612740         2.297448
 C         1.088916        -0.153930         0.955493
 C         0.080115         0.395823        -0.110342
 C         2.260523        -1.104457         0.885658
 O         3.151338        -0.154731         0.365686
 H         1.940245         2.962637         0.982039
 H         3.675533         2.602674         0.964656
 H         2.637593         2.267242        -0.354986
 H         3.657563         0.433788         2.746748
 H         2.112661         1.092585         3.166254
 H         2.181436        -1.821675         3.273503
 H        -0.145258        -0.324934        -0.994077
 H        -0.878814         0.464542         0.444164
 H         0.461981         1.469205        -0.554995
 H         2.438118        -2.168450         0.394426
