19
Iteration:   602
 C         2.476819         2.316997         0.881850
 C         2.407907         0.794288         1.160212
 C         2.729140         0.420476         2.610116
 C         1.985879        -0.934764         2.486309
 O         0.601354        -0.463068         2.163144
 C         1.167795        -0.054745         0.839639
 C         0.031624         0.240288        -0.174329
 C         2.235715        -1.142705         0.892002
 O         3.262123        -0.210039         0.338466
 H         1.487418         2.614860         1.218442
 H         3.262812         2.730066         1.530936
 H         2.736331         2.524479        -0.145786
 H         3.829025         0.338859         2.827006
 H         2.307308         1.089386         3.255244
 H         2.082277        -1.735186         3.199566
 H        -0.863178        -0.196598         0.145320
 H        -0.093070         1.290085        -0.156339
 H         0.362357        -0.012161        -1.198465
 H         2.223188        -2.116332         0.285209
