19
Iteration:  2786
 C         1.881474         2.548979         1.405395
 C         2.041908         0.971714         1.435896
 C         2.048310         0.307052         2.809866
 C         2.121743        -1.066350         2.256233
 O         0.731496        -1.182061         1.571198
 C         1.359106        -0.332014         0.569734
 C         0.611376        -0.006999        -0.707473
 C         2.790868        -0.801335         0.923972
 O         3.332805         0.518205         0.914005
 H         2.835368         2.956187         0.923973
 H         1.052711         3.007359         0.776496
 H         1.802279         2.836287         2.469587
 H         2.855661         0.515319         3.484000
 H         0.998224         0.392035         3.268925
 H         2.094157        -1.911499         2.933972
 H         0.670520        -0.789623        -1.407262
 H        -0.404042         0.179040        -0.329190
 H         0.933604         0.921973        -1.260407
 H         3.454239        -1.502590         0.387400
