19
Iteration:  4159charge 0 multiplicity 1
 C         1.443221         2.357929         1.354756
 C         1.951432         0.972908         1.609526
 C         1.653237         0.157535         2.783596
 C         1.953921        -1.166826         2.193847
 O         0.926079        -1.239835         1.219354
 C         1.670624        -0.222649         0.441746
 C         0.897144         0.104170        -0.821248
 C         2.983703        -0.679130         1.023673
 O         3.464470         0.693628         1.392286
 H         0.576079         2.487664         2.032085
 H         2.160775         3.144833         1.629115
 H         1.083423         2.403735         0.374188
 H         2.198086         0.193941         3.728669
 H         0.570948         0.172962         3.072971
 H         2.184072        -2.069193         2.664028
 H         0.520641        -0.845327        -1.229540
 H         0.126774         0.861170        -0.613487
 H         1.484652         0.759124        -1.579116
 H         3.801358        -1.214727         0.445269
