19
Iteration:  1904charge 0 multiplicity 1
 C         2.410289         2.344349         0.845692
 C         2.414448         0.862109         1.265918
 C         2.552852         0.481696         2.726949
 C         1.998902        -1.006829         2.466049
 O         0.578649        -0.772130         1.998748
 C         1.148866        -0.189012         0.792519
 C         0.142977         0.250838        -0.211218
 C         2.380122        -0.998388         0.891529
 O         3.298949        -0.000123         0.442558
 H         2.335223         2.309206        -0.227345
 H         1.603066         2.927479         1.307019
 H         3.300461         2.940008         1.198190
 H         3.576093         0.479989         3.146314
 H         1.818686         1.067719         3.331495
 H         2.094820        -1.896144         3.157295
 H        -0.796865        -0.263655        -0.017898
 H         0.068911         1.380012        -0.186425
 H         0.500909        -0.055594        -1.170146
 H         2.447237        -2.038113         0.407043
