19
Iteration:  1845
 C         2.436169         2.314091         0.844751
 C         2.382098         0.919195         1.197287
 C         2.644961         0.364116         2.739261
 C         1.954058        -1.016729         2.455450
 O         0.591101        -0.652583         2.078845
 C         1.125291        -0.049343         0.791662
 C         0.126106         0.187886        -0.246757
 C         2.380358        -1.060095         0.861493
 O         3.246061         0.009089         0.478738
 H         3.319865         2.535373         0.196918
 H         1.518827         2.729445         0.394899
 H         2.763734         2.743243         1.759947
 H         3.735871         0.225428         2.883836
 H         2.290617         0.978941         3.640862
 H         2.072540        -1.741640         3.224758
 H         0.275564        -0.733560        -0.927484
 H        -0.951756        -0.028884         0.088969
 H         0.071208         1.127867        -0.944227
 H         2.486935        -2.008614         0.381556
