19
Iteration:   267
 C         2.538766         2.247032         0.878870
 C         2.473269         0.785591         1.131893
 C         2.778883         0.386371         2.603684
 C         1.955723        -0.883051         2.457065
 O         0.549607        -0.428172         2.179553
 C         1.067717        -0.095092         0.883491
 C         0.002942         0.218089        -0.118600
 C         2.227203        -1.091741         0.845312
 O         3.285315        -0.174424         0.343522
 H         1.844695         2.894225         1.512471
 H         3.567445         2.701480         1.139824
 H         2.348193         2.363291        -0.215592
 H         3.869365         0.250336         2.707103
 H         2.346981         1.011793         3.302756
 H         2.023301        -1.700394         3.120762
 H        -0.399441        -0.714374        -0.477506
 H        -0.709085         0.771738         0.302060
 H         0.452407         0.824112        -1.006374
 H         2.329199        -2.128470         0.402713
