19
Iteration:  1701
 C         2.489483         2.404127         0.809863
 C         2.439613         0.839490         1.183465
 C         2.632198         0.391003         2.664747
 C         1.955890        -0.957700         2.426125
 O         0.613559        -0.667484         2.153952
 C         1.106664        -0.095044         0.817459
 C         0.060101         0.267112        -0.191595
 C         2.331660        -1.081985         0.935334
 O         3.271270        -0.100570         0.357884
 H         2.511380         3.055265         1.623960
 H         3.456437         2.590024         0.393868
 H         1.683164         2.650136         0.158324
 H         3.680995         0.095777         3.028335
 H         2.272185         1.001876         3.412597
 H         1.945197        -1.736326         3.235837
 H        -0.318492         1.249983        -0.180608
 H         0.267319        -0.167603        -1.109784
 H        -0.853985        -0.160530         0.241306
 H         2.580965        -2.059344         0.595549
