19
Iteration:   873
 C         2.639441         2.304650         0.732589
 C         2.312885         0.870853         1.149842
 C         2.731907         0.457576         2.603393
 C         1.991541        -0.981999         2.456929
 O         0.590835        -0.610825         2.286416
 C         1.035194        -0.126410         0.891799
 C         0.159969         0.287138        -0.127986
 C         2.196413        -1.116639         0.871766
 O         3.158721        -0.116937         0.323941
 H         1.617527         2.844473         0.598183
 H         3.135959         2.771503         1.674844
 H         3.339918         2.254271        -0.177982
 H         3.972352         0.370622         2.529736
 H         2.448264         1.134688         3.407308
 H         2.115915        -1.775510         3.297655
 H        -0.613951        -0.445503        -0.434936
 H        -0.228945         1.286326         0.296227
 H         0.838886         0.396776        -1.082329
 H         2.129906        -2.101993         0.526007
