19
Iteration:  1453charge 0 multiplicity 1
 C         2.555870         2.167470         0.625515
 C         2.390370         0.848148         1.205689
 C         2.609364         0.360391         2.690769
 C         2.022504        -0.991590         2.441987
 O         0.612007        -0.610502         2.169063
 C         1.088519        -0.047058         0.935075
 C         0.145945         0.359305        -0.096058
 C         2.255697        -1.065418         0.826439
 O         3.203080        -0.046895         0.440336
 H         2.586451         2.937267         1.410024
 H         3.591226         2.183399         0.201764
 H         1.799820         2.403981        -0.076172
 H         3.743660         0.589306         2.746644
 H         2.011613         0.902549         3.465511
 H         2.014490        -1.677270         3.357910
 H        -0.066329        -0.639386        -0.665480
 H        -0.858983         0.749604         0.280042
 H         0.583878         0.879002        -0.958267
 H         2.298866        -1.948050         0.279211
