19
Iteration:   798
 C         2.593618         2.281196         0.752431
 C         2.380313         0.822178         1.135539
 C         2.631974         0.481955         2.625288
 C         2.009323        -0.908887         2.454409
 O         0.634336        -0.574038         2.115364
 C         1.071704        -0.178429         0.844070
 C         0.042500         0.334498        -0.054578
 C         2.309769        -1.169933         0.881841
 O         3.214765        -0.127122         0.420949
 H         1.976269         2.962516         1.291617
 H         3.695115         2.336103         1.068853
 H         2.336769         2.386343        -0.321171
 H         3.835873         0.512611         2.877859
 H         2.102062         0.995458         3.424149
 H         2.096903        -1.808766         3.158829
 H        -0.965017        -0.095203         0.263414
 H        -0.071618         1.447029         0.141583
 H         0.117770         0.128414        -1.209312
 H         2.387050        -2.162750         0.391279
