19
Iteration:  3232
 C         1.517011         2.475703         1.461975
 C         1.908441         0.996884         1.566623
 C         1.774701         0.173819         2.892948
 C         2.113123        -1.186387         2.161554
 O         0.946670        -1.378697         1.168116
 C         1.538780        -0.268014         0.449530
 C         0.931555        -0.060656        -0.844737
 C         2.955265        -0.532592         1.013931
 O         3.234546         0.774119         1.324389
 H         1.027600         2.947015         2.388654
 H         2.394065         3.011884         1.062737
 H         0.691266         2.632065         0.735966
 H         2.525566         0.236733         3.644942
 H         0.793058         0.353590         3.365896
 H         2.441210        -2.120975         2.713298
 H         1.452201        -0.446026        -1.646783
 H        -0.041107        -0.537717        -0.839524
 H         0.847262         1.038103        -0.917995
 H         3.686935        -1.185516         0.526659
