19
Iteration:  1019charge 0 multiplicity 1
 C         2.559129         2.309250         0.730010
 C         2.410800         0.856963         1.225203
 C         2.760993         0.442173         2.628661
 C         1.973971        -0.987556         2.458325
 O         0.599445        -0.628880         2.150347
 C         1.061009        -0.047556         0.949165
 C         0.075659         0.276650        -0.183574
 C         2.189183        -1.066715         0.817717
 O         3.235498        -0.152205         0.450310
 H         2.450823         2.815254         1.670970
 H         3.555366         2.443768         0.309031
 H         1.826335         2.656420         0.024299
 H         3.850544         0.315227         2.739110
 H         2.312213         1.129796         3.458329
 H         2.074794        -1.822605         3.080897
 H        -0.890146        -0.278504         0.061497
 H        -0.148260         1.343613        -0.287770
 H         0.504389         0.017035        -1.109648
 H         2.300590        -2.087046         0.279797
