19
Iteration:  2503
 C         1.935757         2.473190         1.196064
 C         2.123636         0.932319         1.399185
 C         2.290813         0.287566         2.810181
 C         2.027555        -1.135205         2.303007
 O         0.649735        -0.919041         1.691453
 C         1.326331        -0.217689         0.719185
 C         0.502819         0.064390        -0.498408
 C         2.715502        -0.888259         0.839217
 O         3.346220         0.359483         0.742283
 H         2.765154         2.987896         0.764188
 H         1.045545         2.758417         0.604055
 H         1.858476         3.033046         2.148600
 H         3.346209         0.400210         3.257867
 H         1.543609         0.687675         3.480713
 H         2.031209        -2.007125         2.970731
 H         1.174025        -0.056054        -1.362012
 H        -0.165758        -0.804867        -0.574335
 H        -0.136626         0.961458        -0.433211
 H         3.109914        -1.763684         0.316432
