19
Iteration:  3609
 C         1.359167         2.365302         1.566853
 C         1.887526         0.935532         1.595725
 C         1.742229         0.116336         2.885056
 C         1.972541        -1.154659         2.186198
 O         0.944180        -1.278917         1.156524
 C         1.579104        -0.164663         0.471433
 C         1.089583        -0.053152        -0.960813
 C         2.992907        -0.550965         0.987944
 O         3.336456         0.773169         1.357611
 H         0.228083         2.252140         1.528277
 H         1.643320         3.047419         2.446220
 H         1.718405         2.743923         0.595644
 H         2.576277         0.469639         3.446765
 H         0.767013         0.260061         3.526211
 H         2.126714        -2.145419         2.496794
 H         0.729073        -0.913850        -1.436478
 H         0.186401         0.579769        -1.200131
 H         1.943120         0.429141        -1.496043
 H         3.701626        -1.110920         0.418944
