19
Iteration:  2224charge 0 multiplicity 1
 C         2.193244         2.415341         0.947050
 C         2.223097         0.927857         1.260366
 C         2.444731         0.390806         2.786929
 C         2.027131        -1.091193         2.389066
 O         0.578554        -0.948272         1.885096
 C         1.278163        -0.157070         0.851333
 C         0.340108         0.173475        -0.337121
 C         2.473841        -0.981746         0.817924
 O         3.334969         0.225164         0.649012
 H         3.196993         2.678666         0.511534
 H         1.418213         2.500758         0.136274
 H         2.012568         3.094666         1.763428
 H         3.493694         0.665618         3.048023
 H         1.768321         0.793760         3.647672
 H         2.087553        -1.976829         3.056946
 H         0.138959         1.294672        -0.435407
 H         0.984750        -0.024956        -1.219800
 H        -0.692958        -0.412502        -0.385722
 H         2.782168        -1.741191         0.086992
