19
Iteration:  3738charge 0 multiplicity 1
 C         1.588327         2.608635         1.711208
 C         1.884678         1.031469         1.604664
 C         1.615614         0.107064         2.860420
 C         2.004898        -1.195310         2.124582
 O         0.985880        -1.357162         1.114414
 C         1.498145        -0.175481         0.443044
 C         0.983694        -0.269146        -0.989202
 C         2.984578        -0.581497         0.902866
 O         3.281261         0.806470         1.377638
 H         0.670669         2.878193         2.256303
 H         2.483216         3.061448         2.223622
 H         1.547329         3.012191         0.755583
 H         2.303650         0.328013         3.626814
 H         0.541433         0.129691         3.326897
 H         2.221635        -2.008807         2.789067
 H         1.378564        -1.163335        -1.417632
 H        -0.039317         0.162907        -1.206290
 H         1.527922         0.615564        -1.513379
 H         3.951356        -1.071914         0.727253
