19
Iteration:  1120charge 0 multiplicity 1
 C         2.585371         2.216504         0.678462
 C         2.458476         0.851627         1.232583
 C         2.688739         0.371178         2.637597
 C         2.027247        -0.963857         2.411696
 O         0.566136        -0.607100         2.179683
 C         1.091692        -0.108020         0.904405
 C         0.036697         0.361871        -0.069648
 C         2.271013        -1.068185         0.845628
 O         3.176772        -0.078249         0.394639
 H         1.632077         2.726710         0.496746
 H         3.277703         2.735089         1.236661
 H         2.841983         1.978790        -0.360635
 H         3.754792         0.399756         2.817653
 H         2.085615         0.984911         3.476039
 H         2.213346        -1.739199         3.277030
 H        -0.373532        -0.462657        -0.618503
 H        -0.703750         1.012141         0.471991
 H         0.618953         1.030398        -0.733655
 H         2.419270        -2.197768         0.399899
