19
Iteration:  4272
 C         1.320007         2.320043         1.518937
 C         1.933237         0.949576         1.543779
 C         1.811504         0.196996         2.838452
 C         2.007684        -1.107094         2.175290
 O         0.916555        -1.251344         1.227077
 C         1.554482        -0.206435         0.459476
 C         0.952164         0.075396        -0.904356
 C         2.994136        -0.673912         1.017286
 O         3.427641         0.706310         1.341712
 H         0.314183         2.085659         1.344760
 H         1.309319         3.064888         2.288911
 H         1.716426         2.807654         0.588924
 H         2.599773         0.314667         3.557830
 H         0.740391         0.158968         3.025068
 H         2.199994        -2.177801         2.527654
 H         0.191155         0.874609        -0.638393
 H         1.815434         0.527075        -1.485248
 H         0.593788        -0.806853        -1.391376
 H         3.724640        -1.338325         0.635922
