19
Iteration:  4087
 C         1.478294         2.462804         1.671695
 C         1.969040         1.001169         1.513097
 C         1.753820         0.185142         2.841398
 C         2.036058        -1.156701         2.155112
 O         0.857242        -1.265945         1.287303
 C         1.497274        -0.202340         0.498429
 C         1.155176        -0.086222        -0.920228
 C         2.871254        -0.629968         0.914259
 O         3.323421         0.693047         1.205978
 H         0.486248         2.555764         1.211405
 H         1.435912         2.835197         2.715120
 H         2.118022         3.269533         1.139172
 H         2.471043         0.461072         3.625277
 H         0.716690         0.214922         3.290749
 H         2.009533        -2.053414         2.845929
 H         1.589538        -0.890224        -1.480691
 H         0.047456        -0.148871        -0.985631
 H         1.430753         0.875102        -1.280866
 H         3.259033        -1.396391         0.275446
