19
Iteration:  4894
 C         1.146049         2.293421         1.551024
 C         1.765467         0.844738         1.620558
 C         1.919327         0.083942         2.921011
 C         2.289577        -1.228395         2.135691
 O         1.001580        -1.439184         1.266691
 C         1.514242        -0.253290         0.590769
 C         1.089684         0.239475        -0.824824
 C         2.992561        -0.517914         0.886234
 O         3.176093         0.951433         1.098115
 H         0.092065         2.284423         1.165010
 H         1.094209         2.563712         2.577977
 H         1.843722         2.833871         0.931457
 H         2.630380         0.550480         3.593507
 H         0.928264        -0.233518         3.360993
 H         2.670717        -2.017288         2.736204
 H         0.399320         1.085495        -0.846040
 H         2.046454         0.506918        -1.410768
 H         0.713862        -0.678500        -1.404598
 H         3.717099        -1.190984         0.228458
