19
Iteration:   523charge 0 multiplicity 1
 C         2.651650         2.241720         0.581718
 C         2.350914         0.861253         1.258864
 C         2.662658         0.375557         2.687647
 C         2.014187        -1.005296         2.432004
 O         0.522882        -0.594120         2.191917
 C         1.040544        -0.081195         0.940594
 C         0.135760         0.283226        -0.093555
 C         2.258222        -1.071427         0.810337
 O         3.255340        -0.032935         0.444498
 H         2.484535         3.245784         1.214251
 H         3.730390         2.285307         0.519496
 H         2.024197         2.222329        -0.330529
 H         3.762015         0.272085         2.660846
 H         2.001305         0.819572         3.499463
 H         2.086852        -1.874332         2.997798
 H        -0.383135        -0.555046        -0.501757
 H        -0.712602         0.934524         0.395306
 H         0.445879         0.816269        -0.926929
 H         2.306259        -1.941089         0.225099
