19
Iteration:  3519
 C         1.351976         2.401863         1.411704
 C         1.786236         0.914693         1.612899
 C         1.744788         0.089180         2.906932
 C         2.037331        -1.165250         2.156746
 O         0.917607        -1.299342         1.135161
 C         1.548641        -0.262119         0.502853
 C         1.162172         0.088135        -0.893163
 C         2.958124        -0.575014         1.021517
 O         3.342786         0.736875         1.364411
 H         0.421928         2.812108         1.826511
 H         2.252343         3.008594         1.746167
 H         1.364399         2.746525         0.337900
 H         2.442490         0.301278         3.786590
 H         0.731935         0.112536         3.325150
 H         2.122217        -2.054424         2.811430
 H         1.854777        -0.358610        -1.638995
 H         0.129893        -0.213359        -1.048599
 H         1.231015         1.174846        -0.800870
 H         3.793033        -0.990558         0.365903
