19
Iteration:  3522
 C         1.379886         2.429327         1.401895
 C         1.791358         0.917448         1.638687
 C         1.727729         0.090631         2.875382
 C         2.041506        -1.175747         2.178471
 O         0.945957        -1.319375         1.133730
 C         1.528707        -0.276943         0.510450
 C         1.166026         0.076132        -0.900685
 C         2.954899        -0.578168         1.022520
 O         3.328009         0.755493         1.358194
 H         0.449988         2.845519         1.913994
 H         2.301859         2.988465         1.786349
 H         1.360877         2.842054         0.384150
 H         2.439508         0.274027         3.635991
 H         0.663581         0.082152         3.364516
 H         2.041554        -2.080384         2.743998
 H         1.840489        -0.333062        -1.599097
 H         0.079341        -0.175765        -1.011621
 H         1.197461         1.201134        -0.879341
 H         3.743855        -0.977789         0.407468
