19
Iteration:  4428charge 0 multiplicity 1
 C         1.321860         2.377235         1.490183
 C         1.878431         0.881509         1.615846
 C         1.797420         0.048815         2.882929
 C         2.111545        -1.215769         2.133092
 O         0.934817        -1.322746         1.254860
 C         1.493896        -0.222583         0.524984
 C         1.088903         0.078841        -0.838567
 C         2.990967        -0.535318         0.962030
 O         3.270106         0.833302         1.215172
 H         0.209820         2.519056         1.627817
 H         1.805712         3.169840         2.039463
 H         1.505573         2.725725         0.495169
 H         2.518400         0.446820         3.617110
 H         0.851760         0.149888         3.364740
 H         2.361454        -2.139079         2.647364
 H         1.625654        -0.627536        -1.455873
 H         0.004073        -0.001958        -1.007357
 H         1.492086         1.140178        -1.025716
 H         3.732799        -1.064644         0.269544
