19
Iteration:  4856charge 0 multiplicity 1
 C         1.179646         2.246245         1.770087
 C         1.821886         0.975037         1.646992
 C         1.873351         0.143846         2.879979
 C         2.250639        -1.110110         2.132281
 O         1.030012        -1.389609         1.159916
 C         1.513539        -0.190268         0.491305
 C         0.990361        -0.088613        -0.996196
 C         3.022869        -0.485148         0.885763
 O         3.254808         0.897880         1.239378
 H         0.104414         2.285983         1.871893
 H         1.602125         2.841698         2.670987
 H         1.481967         3.001178         1.015435
 H         2.505040         0.571217         3.693300
 H         0.878121         0.066480         3.296270
 H         2.456400        -2.111836         2.612290
 H         0.053782         0.493748        -1.222381
 H         1.728987         0.380076        -1.621971
 H         0.777289        -1.110433        -1.272246
 H         3.617168        -0.996073         0.178290
