19
Iteration:  4430charge 0 multiplicity 1
 C         1.319197         2.370103         1.477336
 C         1.878411         0.875293         1.635253
 C         1.799314         0.033651         2.879728
 C         2.113334        -1.202124         2.151129
 O         0.945901        -1.326979         1.263887
 C         1.497816        -0.230944         0.496955
 C         1.087257         0.096711        -0.821133
 C         2.980415        -0.539894         0.959381
 O         3.271614         0.842329         1.213905
 H         0.186497         2.490546         1.577366
 H         1.872257         3.187096         1.998046
 H         1.552863         2.724674         0.480030
 H         2.484247         0.448118         3.619126
 H         0.783727         0.144355         3.361617
 H         2.337851        -2.157338         2.573759
 H         1.580335        -0.626488        -1.463323
 H         0.000251         0.077212        -0.996414
 H         1.493365         1.118917        -1.083251
 H         3.702799        -1.046526         0.285001
