19
Iteration:   833charge 0 multiplicity 1
 C         2.495540         2.255152         0.594046
 C         2.517402         0.870791         1.232341
 C         2.693137         0.384233         2.706717
 C         1.958658        -0.972191         2.388432
 O         0.623689        -0.560278         2.155956
 C         1.116494        -0.060048         0.942116
 C        -0.088548         0.335283        -0.101085
 C         2.216826        -1.077041         0.800779
 O         3.371894        -0.169697         0.487759
 H         1.602864         2.708013         0.700398
 H         3.175315         2.994016         1.134208
 H         2.976378         2.336876        -0.372829
 H         3.830074         0.442440         2.914898
 H         2.097527         0.788684         3.484292
 H         1.987927        -1.958382         2.932474
 H        -0.958867        -0.256780         0.424455
 H        -0.248947         1.360830        -0.021106
 H         0.124594        -0.008413        -1.165522
 H         2.144536        -2.125186         0.252475
