19
Iteration:  4141charge 0 multiplicity 1
 C         1.416077         2.356971         1.285612
 C         1.931145         0.965651         1.525316
 C         1.722435         0.189027         2.924783
 C         2.075076        -1.232074         2.189426
 O         0.892159        -1.318840         1.160235
 C         1.534993        -0.139744         0.529913
 C         1.008288         0.191955        -0.781261
 C         2.947855        -0.662936         0.997341
 O         3.381785         0.629594         1.366530
 H         0.473514         2.626685         1.719598
 H         2.134629         3.124777         1.621507
 H         1.304054         2.592186         0.174082
 H         2.443555         0.548816         3.679800
 H         0.718178         0.141945         3.446576
 H         2.132185        -2.216985         2.761886
 H         1.093611        -0.647665        -1.466376
 H        -0.055092         0.554563        -0.616583
 H         1.590601         1.046080        -1.162114
 H         3.738360        -1.332522         0.697423
