19
Iteration:  2578charge 0 multiplicity 1
 C         1.999935         2.490874         1.277171
 C         2.132424         0.946023         1.388171
 C         2.114912         0.324654         2.740589
 C         2.037698        -1.123545         2.306850
 O         0.674559        -1.038400         1.707419
 C         1.356414        -0.291724         0.582558
 C         0.427977         0.034224        -0.543013
 C         2.781859        -0.856164         0.879303
 O         3.403942         0.422484         0.826339
 H         1.438817         2.744355         0.409872
 H         1.437981         3.102921         1.999446
 H         2.989497         2.945801         1.087220
 H         2.976431         0.734768         3.368556
 H         1.224686         0.417919         3.306139
 H         2.133495        -1.979867         3.002568
 H        -0.284578        -0.824905        -0.788535
 H        -0.193213         0.872064        -0.101493
 H         0.885552         0.536797        -1.455193
 H         3.501164        -1.553984         0.386916
