19
Iteration:    83
 C         2.678867         2.286456         0.709299
 C         2.405219         0.835408         1.151127
 C         2.634743         0.481183         2.625523
 C         2.032890        -0.933361         2.447542
 O         0.648243        -0.642038         2.254272
 C         1.085531        -0.058205         0.937573
 C         0.169592         0.312760        -0.093791
 C         2.148679        -1.163180         0.881056
 O         3.085437        -0.175721         0.289923
 H         2.062593         3.037653         1.251159
 H         3.662588         2.619702         1.024769
 H         2.667437         2.389210        -0.395411
 H         3.715161         0.612518         3.021226
 H         1.961857         0.956877         3.325536
 H         2.218538        -1.620892         3.245640
 H         0.114769        -0.438990        -0.928653
 H        -0.927803         0.571873         0.323124
 H         0.482627         1.382614        -0.520919
 H         1.999436        -2.131526         0.385182
