19
Iteration:   382charge 0 multiplicity 1
 C         2.505756         2.217272         0.831192
 C         2.453716         0.797050         1.162987
 C         2.670107         0.475994         2.637038
 C         2.008550        -0.941898         2.478819
 O         0.641184        -0.517836         2.177949
 C         1.106068        -0.105506         0.863691
 C         0.027652         0.361649        -0.162492
 C         2.255633        -1.140641         0.857760
 O         3.255121        -0.211781         0.336957
 H         1.603054         2.623702         1.481745
 H         3.497288         2.538833         1.229633
 H         2.317482         2.448647        -0.258184
 H         3.707208         0.689923         2.905181
 H         1.878391         1.029210         3.279197
 H         2.092317        -1.660496         3.281285
 H        -0.935150        -0.160561        -0.074519
 H        -0.091027         1.539913         0.005235
 H         0.534622         0.189186        -1.094607
 H         2.297340        -2.100891         0.314521
