19
Iteration:   213charge 0 multiplicity 1
 C         2.583405         2.186299         0.682964
 C         2.428137         0.812142         1.215132
 C         2.760242         0.413776         2.650277
 C         1.991800        -0.942937         2.497127
 O         0.571360        -0.648984         2.173100
 C         1.035116        -0.091010         0.953528
 C         0.069315         0.379690        -0.144365
 C         2.268878        -1.050076         0.832382
 O         3.162494        -0.072437         0.385578
 H         1.699415         2.709195         1.039566
 H         3.512273         2.617345         0.982625
 H         2.535728         2.369067        -0.393298
 H         3.829688         0.103231         2.694585
 H         2.451724         0.954417         3.481720
 H         2.147991        -1.640764         3.272782
 H        -0.875022        -0.092942         0.025575
 H        -0.020589         1.343049         0.019977
 H         0.530705         0.047004        -1.128916
 H         2.364502        -1.926113         0.164956
