19
Iteration:  2809charge 0 multiplicity 1
 C         1.807205         2.508132         1.393470
 C         2.076048         0.999079         1.440483
 C         2.077784         0.298766         2.890718
 C         2.001147        -1.112791         2.211506
 O         0.755792        -1.175671         1.547631
 C         1.383824        -0.186370         0.632000
 C         0.642349        -0.086453        -0.681070
 C         2.735128        -0.745004         0.832169
 O         3.410411         0.500306         0.949012
 H         2.274853         3.024157         0.465306
 H         0.713576         2.649665         1.131574
 H         2.033433         2.975184         2.366531
 H         2.998532         0.513680         3.418248
 H         1.109320         0.456439         3.523410
 H         2.200107        -1.986371         2.834854
 H         0.217512        -0.985796        -1.029801
 H        -0.032318         0.787786        -0.692303
 H         1.448554         0.156165        -1.473905
 H         3.276238        -1.450911         0.216285
