19
Iteration:  1510charge 0 multiplicity 1
 C         2.548758         2.283158         0.859545
 C         2.389354         0.850922         1.202286
 C         2.630935         0.424291         2.652083
 C         1.969325        -0.951540         2.462972
 O         0.642533        -0.534171         2.186825
 C         1.142721        -0.079167         0.847303
 C         0.067352         0.196824        -0.149309
 C         2.242893        -1.046516         0.801976
 O         3.261566        -0.167748         0.336311
 H         1.954542         2.877363         1.574468
 H         3.586618         2.466000         1.050721
 H         2.390439         2.609998        -0.137501
 H         3.672307         0.496986         2.717902
 H         2.205974         1.251475         3.375383
 H         2.032355        -1.711141         3.180402
 H        -0.750162        -0.363172         0.338232
 H        -0.332739         1.201938        -0.475400
 H         0.262269        -0.250277        -1.115904
 H         2.186894        -2.048803         0.336834
