19
Iteration:  3047charge 0 multiplicity 1
 C         1.546991         2.330977         1.382140
 C         2.090452         0.929619         1.577714
 C         1.830764         0.271119         2.875642
 C         2.110020        -1.137379         2.190554
 O         0.848608        -1.177924         1.343658
 C         1.441656        -0.197307         0.567871
 C         0.755116         0.008958        -0.767711
 C         2.912834        -0.661227         0.864105
 O         3.400878         0.637360         1.192665
 H         2.386860         3.036692         1.173489
 H         0.908218         2.296120         0.524286
 H         1.013955         2.757043         2.195170
 H         2.629736         0.636669         3.471626
 H         0.854716         0.171999         3.450873
 H         2.328414        -2.031493         2.803047
 H         0.168853        -0.864727        -0.936958
 H         0.041431         0.874642        -0.818371
 H         1.542175         0.023922        -1.623929
 H         3.468268        -1.344380         0.236221
