19
Iteration:  2812
 C         1.792462         2.485112         1.368793
 C         2.081312         0.981642         1.450263
 C         2.087148         0.292278         2.894825
 C         2.010074        -1.083416         2.204795
 O         0.745487        -1.181618         1.551920
 C         1.366435        -0.165283         0.618565
 C         0.663133        -0.080625        -0.683090
 C         2.733040        -0.729280         0.842829
 O         3.419881         0.506450         0.952996
 H         2.256995         2.956349         0.489873
 H         0.716400         2.664514         1.263371
 H         2.046242         2.920426         2.340159
 H         3.032439         0.448883         3.490082
 H         1.154262         0.418948         3.467325
 H         2.115825        -1.984727         2.815671
 H         0.162217        -1.059760        -0.971995
 H         0.030024         0.825719        -0.673083
 H         1.405102         0.079709        -1.515284
 H         3.212966        -1.431903         0.188431
