19
Iteration:  4881
 C         1.114774         2.352405         1.664603
 C         1.784177         1.007978         1.517979
 C         1.866556        -0.009207         2.886280
 C         2.289577        -1.210065         2.123390
 O         0.966604        -1.473047         1.317160
 C         1.558580        -0.260970         0.532277
 C         1.167035         0.092373        -0.826716
 C         2.966454        -0.489697         0.907551
 O         3.213462         0.920691         1.087531
 H         0.063178         2.457014         1.392564
 H         1.195054         2.835356         2.651482
 H         1.605692         3.216202         1.100594
 H         2.653174         0.340718         3.617765
 H         0.919815         0.005919         3.454983
 H         2.628654        -2.181504         2.413604
 H         0.444358         0.912374        -0.728794
 H         1.986733         0.543720        -1.475726
 H         0.547812        -0.733144        -1.356135
 H         3.693223        -0.914876         0.123642
