19
Iteration:  3631charge 0 multiplicity 1
 C         1.257435         2.352004         1.390232
 C         1.876895         0.911329         1.590295
 C         1.796246         0.109247         2.906254
 C         2.111586        -1.241374         2.157230
 O         0.842598        -1.260670         1.277328
 C         1.571249        -0.225566         0.483154
 C         1.222357         0.193748        -0.837106
 C         2.906427        -0.656092         0.974380
 O         3.355955         0.787803         1.281786
 H         0.150945         2.175916         1.168499
 H         1.264754         3.007922         2.328995
 H         1.708959         2.800380         0.495440
 H         2.468824         0.299616         3.714098
 H         0.679871        -0.001556         3.282898
 H         2.243790        -2.144753         2.737442
 H         0.891498        -0.669624        -1.352650
 H         0.303175         0.784047        -1.059324
 H         2.134600         0.608292        -1.321309
 H         3.656918        -1.169284         0.427920
