19
Iteration:  2087charge 0 multiplicity 1
 C         2.390294         2.376264         0.913942
 C         2.355788         0.904213         1.345130
 C         2.426658         0.420681         2.756936
 C         2.035121        -0.967020         2.394759
 O         0.665179        -0.920349         2.000613
 C         1.132373        -0.191884         0.814899
 C         0.202476         0.238571        -0.312965
 C         2.447355        -0.987799         0.833301
 O         3.270172         0.128029         0.488701
 H         1.354579         2.784679         1.073575
 H         3.144098         3.032789         1.301993
 H         2.406644         2.492736        -0.196407
 H         3.376138         0.425498         3.181079
 H         1.653867         0.755987         3.539684
 H         2.175230        -1.859628         3.052862
 H         0.519790        -0.273074        -1.243215
 H        -0.873662         0.013821        -0.031163
 H         0.364328         1.257469        -0.526408
 H         2.606577        -2.035943         0.406077
