19
Iteration:  3558
 C         1.566876         2.480590         1.632266
 C         1.823726         1.026450         1.643218
 C         1.502408         0.148833         2.788836
 C         2.086783        -1.118155         2.186249
 O         1.024012        -1.450294         1.149555
 C         1.549921        -0.288952         0.455592
 C         1.054419        -0.055417        -0.969704
 C         2.971014        -0.511459         0.976590
 O         3.299869         0.807147         1.334000
 H         0.829667         2.773311         2.365742
 H         2.460805         2.728134         2.155447
 H         1.503849         2.966000         0.658071
 H         1.951794         0.488633         3.728138
 H         0.447908        -0.082592         2.892819
 H         2.276132        -2.032767         2.801062
 H         1.242817        -0.892837        -1.702815
 H        -0.046238        -0.025996        -1.002219
 H         1.406762         0.857494        -1.432726
 H         3.669332        -1.228630         0.578670
