19
Iteration:  3200charge 0 multiplicity 1
 C         1.443301         2.340982         1.393327
 C         1.829422         0.951330         1.519206
 C         1.748229         0.169027         2.896357
 C         2.181484        -1.203785         2.180456
 O         0.920185        -1.367903         1.377222
 C         1.490711        -0.191945         0.583744
 C         1.029511         0.114163        -0.826146
 C         2.911117        -0.576390         0.926272
 O         3.328905         0.742020         1.188227
 H         0.431989         2.560391         1.867475
 H         2.230211         2.981593         1.820702
 H         1.468403         2.631084         0.326288
 H         2.383608         0.408751         3.740873
 H         0.682293         0.215719         3.113064
 H         2.479796        -2.192165         2.607662
 H         1.887361         0.200396        -1.420197
 H         0.286859        -0.554735        -1.242343
 H         0.553779         1.120327        -0.900268
 H         3.588792        -1.159149         0.303636
