19
Iteration:  3027
 C         1.497123         2.454458         1.299040
 C         1.929246         0.971827         1.523512
 C         1.989397         0.167724         2.891724
 C         2.016337        -1.188200         2.199456
 O         0.806565        -1.173534         1.425013
 C         1.470727        -0.201415         0.535237
 C         0.839393         0.023610        -0.746816
 C         2.903127        -0.713622         0.913434
 O         3.429174         0.638343         1.142992
 H         2.325292         3.154771         1.644340
 H         1.163112         2.587003         0.290223
 H         0.781409         2.780468         2.061983
 H         2.915536         0.375156         3.520163
 H         0.994205         0.273634         3.437138
 H         2.261472        -2.157887         2.623832
 H         0.710108        -0.967426        -1.210126
 H        -0.161287         0.457986        -0.450490
 H         1.517409         0.691271        -1.432111
 H         3.559807        -1.361786         0.378065
