19
Iteration:   766charge 0 multiplicity 1
 C         2.640709         2.296858         0.766075
 C         2.417664         0.865882         1.149719
 C         2.640817         0.465666         2.620855
 C         2.019113        -0.961526         2.375703
 O         0.665421        -0.638181         2.245951
 C         1.030002        -0.036695         0.957853
 C         0.196795         0.232331        -0.163225
 C         2.137946        -1.071642         0.890274
 O         3.111099        -0.136104         0.418552
 H         2.464768         2.984262         1.525023
 H         3.643604         2.489123         0.238888
 H         1.978299         2.503582        -0.102614
 H         3.769414         0.304993         2.899078
 H         2.105156         0.990004         3.350833
 H         2.215366        -1.803749         3.140821
 H        -0.540942        -0.614698        -0.330621
 H        -0.451686         1.100382        -0.262396
 H         0.846188         0.376579        -1.131721
 H         2.110629        -1.996786         0.222466
