19
Iteration:  4439
 C         1.352406         2.315154         1.393937
 C         1.829304         0.984361         1.653274
 C         1.756872         0.049406         2.934650
 C         2.139963        -1.205620         2.175473
 O         0.990504        -1.359686         1.280217
 C         1.578429        -0.268646         0.527081
 C         1.053293         0.181606        -0.839568
 C         2.912722        -0.553477         0.908344
 O         3.278228         0.855024         1.232541
 H         0.228927         2.339439         1.508795
 H         1.882610         2.938625         2.091807
 H         1.629688         2.459265         0.380633
 H         2.492878         0.331644         3.703793
 H         0.729398        -0.159198         3.204650
 H         2.388886        -2.185221         2.545930
 H         1.151758        -0.587227        -1.614792
 H        -0.026026         0.449230        -0.818277
 H         1.583631         1.083288        -1.324049
 H         3.748079        -1.183061         0.421796
