19
Iteration:   173
 C         2.622368         2.261076         0.726400
 C         2.441642         0.852079         1.085225
 C         2.602881         0.426731         2.638778
 C         2.081996        -0.985174         2.405811
 O         0.635006        -0.608492         2.255425
 C         1.055935        -0.075479         0.959369
 C         0.065769         0.335719        -0.081844
 C         2.188355        -1.070298         0.776332
 O         3.215272        -0.181248         0.431303
 H         2.001848         2.840994         1.457685
 H         3.690810         2.554862         0.791102
 H         2.230642         2.507374        -0.306303
 H         3.692785         0.645762         2.926987
 H         1.799641         0.917333         3.266185
 H         2.166550        -1.822379         3.088920
 H        -0.877869        -0.271898        -0.236588
 H        -0.212183         1.557256         0.009188
 H         0.589788         0.197374        -1.049687
 H         2.175171        -1.996890         0.288349
