19
Iteration:  3324charge 0 multiplicity 1
 C         1.338132         2.333630         1.405099
 C         1.799783         0.884479         1.630878
 C         1.863934         0.133999         2.996451
 C         2.113684        -1.202245         2.144194
 O         0.855281        -1.329103         1.240256
 C         1.546822        -0.271173         0.541382
 C         1.246367         0.179331        -0.911546
 C         2.934857        -0.592843         0.973184
 O         3.194730         0.784008         1.229907
 H         2.057278         3.032758         0.949408
 H         0.454593         2.095420         0.753243
 H         0.930741         2.930592         2.289133
 H         2.631416         0.718254         3.637180
 H         0.886575         0.118557         3.549437
 H         2.457774        -1.966049         2.825488
 H         0.447686        -0.499228        -1.442577
 H         0.821808         1.186241        -1.092003
 H         2.175808         0.087307        -1.479829
 H         3.789419        -1.127155         0.471731
