19
Iteration:  1297charge 0 multiplicity 1
 C         2.464885         2.200480         0.751137
 C         2.423918         0.866605         1.138520
 C         2.648743         0.486845         2.616637
 C         2.089226        -0.929201         2.407166
 O         0.610178        -0.651042         2.093057
 C         1.068294        -0.088907         0.930002
 C         0.085900         0.398089        -0.049340
 C         2.236300        -1.041906         0.845403
 O         3.260170        -0.249434         0.446804
 H         1.562654         2.559386         1.205229
 H         3.300662         2.652944         1.212035
 H         2.522062         2.434541        -0.329955
 H         3.750704         0.678007         2.949911
 H         2.074410         0.994317         3.300313
 H         2.276136        -1.618161         3.139501
 H        -0.819886        -0.079854         0.283326
 H        -0.015788         1.471225        -0.062349
 H         0.499415         0.114023        -1.094036
 H         2.284896        -2.074743         0.420538
