19
Iteration:  2563
 C         1.965850         2.489752         1.138067
 C         2.161277         1.002397         1.374256
 C         2.161108         0.321746         2.855112
 C         2.043284        -1.092557         2.265684
 O         0.723420        -1.064071         1.631836
 C         1.293871        -0.296775         0.662816
 C         0.480982         0.082873        -0.470499
 C         2.715821        -0.895557         0.862715
 O         3.367751         0.417040         0.848879
 H         1.563299         2.825561         0.135645
 H         1.242582         2.828839         1.905959
 H         2.896501         2.975638         1.515854
 H         3.096941         0.401954         3.368990
 H         1.339649         0.697092         3.488289
 H         2.287351        -1.966057         2.889522
 H         0.234657        -0.706639        -1.172836
 H        -0.438663         0.477568        -0.010092
 H         1.032016         0.728244        -1.079015
 H         3.000252        -1.815547         0.341624
