19
Iteration:  1700
 C         2.494384         2.392867         0.815212
 C         2.442573         0.841305         1.192342
 C         2.636651         0.404469         2.664998
 C         1.956904        -0.952367         2.424448
 O         0.609623        -0.672758         2.152897
 C         1.096716        -0.093457         0.822541
 C         0.060275         0.269306        -0.194839
 C         2.330164        -1.073506         0.933881
 O         3.274563        -0.103401         0.349355
 H         2.501203         3.032779         1.628524
 H         3.452640         2.586109         0.407421
 H         1.686074         2.654722         0.129067
 H         3.655076         0.103400         3.019323
 H         2.291607         1.004965         3.431522
 H         1.943058        -1.762960         3.250822
 H        -0.334600         1.244492        -0.165575
 H         0.294429        -0.186323        -1.108534
 H        -0.871614        -0.194779         0.224115
 H         2.592961        -2.092064         0.577726
