19
Iteration:   264
 C         2.529198         2.266297         0.875694
 C         2.465322         0.767843         1.147504
 C         2.775770         0.380208         2.605080
 C         1.984858        -0.892322         2.456360
 O         0.551911        -0.397648         2.175951
 C         1.088945        -0.071290         0.870537
 C         0.006969         0.214112        -0.120170
 C         2.218507        -1.108019         0.805398
 O         3.286422        -0.185426         0.365058
 H         1.728286         2.772265         1.410910
 H         3.571157         2.662825         1.060785
 H         2.338680         2.517541        -0.177711
 H         3.821780         0.300985         2.725984
 H         2.255664         0.968128         3.400103
 H         1.993765        -1.732975         3.175172
 H        -0.390961        -0.744962        -0.418513
 H        -0.760524         0.816652         0.472009
 H         0.472976         0.680153        -0.996240
 H         2.289405        -2.153167         0.343339
