19
Iteration:  1743charge 0 multiplicity 1
 C         2.465188         2.216304         0.756467
 C         2.413127         0.857479         1.273818
 C         2.614282         0.377907         2.682004
 C         2.012751        -0.931736         2.391094
 O         0.636524        -0.691207         2.190086
 C         1.120748         0.002233         0.849335
 C         0.048464         0.291257        -0.249905
 C         2.293795        -1.035102         0.822882
 O         3.302386        -0.070794         0.502845
 H         2.886966         2.941934         1.395858
 H         3.067954         2.239969        -0.150279
 H         1.428085         2.509567         0.398740
 H         3.665773         0.481332         3.061463
 H         1.994903         0.953590         3.330571
 H         2.378029        -1.876382         2.957773
 H         0.100512         1.324485        -0.644539
 H         0.140806        -0.522404        -0.954136
 H        -1.030438         0.306369         0.219473
 H         2.297217        -2.070395         0.336256
