19
Iteration:  1569
 C         2.541145         2.256674         0.715900
 C         2.377763         0.858274         1.259839
 C         2.687430         0.446333         2.632694
 C         2.051739        -0.937457         2.427547
 O         0.573025        -0.703092         2.097658
 C         1.132884        -0.040606         0.895531
 C         0.088423         0.325251        -0.098327
 C         2.235451        -1.054212         0.892571
 O         3.211239        -0.131251         0.389564
 H         1.635529         2.821377         0.501495
 H         3.105449         2.850768         1.496225
 H         3.221274         2.294170        -0.212741
 H         3.830253         0.361494         2.853033
 H         2.138773         1.055843         3.383033
 H         2.206585        -1.770476         3.222339
 H        -0.868927         0.131412         0.441503
 H         0.131375         1.362338        -0.409388
 H         0.202249        -0.472497        -0.910786
 H         2.036537        -2.102695         0.467829
