19
Iteration:  1107charge 0 multiplicity 1
 C         2.628697         2.342969         0.683246
 C         2.385285         0.872986         1.151292
 C         2.700787         0.419996         2.622977
 C         2.011647        -0.934446         2.492434
 O         0.622161        -0.666163         2.198060
 C         1.011498        -0.210734         0.920169
 C         0.100249         0.370486        -0.115173
 C         2.218837        -1.130356         0.829648
 O         3.186098        -0.116639         0.407823
 H         1.728747         2.918732         0.918417
 H         3.293441         2.904953         1.271687
 H         3.067271         2.510207        -0.261958
 H         3.698812         0.205564         2.789559
 H         2.345189         1.086097         3.481017
 H         2.134919        -1.784599         3.227404
 H        -0.637394        -0.312022        -0.593723
 H        -0.570408         1.053409         0.420138
 H         0.609659         0.816739        -0.920516
 H         2.277116        -2.215546         0.299055
