19
Iteration:  2526charge 0 multiplicity 1
 C         1.938527         2.418733         1.088601
 C         2.148306         0.916612         1.441037
 C         2.240328         0.254505         2.890983
 C         2.110815        -1.108407         2.240522
 O         0.698521        -1.015294         1.824516
 C         1.263277        -0.198426         0.726169
 C         0.539385         0.130625        -0.632273
 C         2.607784        -0.856689         0.816712
 O         3.358043         0.417939         0.826373
 H         2.573427         2.736479         0.231843
 H         0.857299         2.583904         0.839362
 H         2.211060         3.172855         1.830599
 H         3.256229         0.385160         3.350481
 H         1.406561         0.429628         3.629621
 H         2.266513        -2.028737         2.790673
 H         0.996232        -0.390614        -1.471756
 H        -0.493557        -0.155173        -0.621644
 H         0.463708         1.256933        -0.676568
 H         2.953899        -1.677788         0.167118
