19
Iteration:  2199
 C         2.235610         2.405569         0.999514
 C         2.278568         0.952748         1.324024
 C         2.405732         0.369666         2.812430
 C         2.071281        -0.959781         2.330910
 O         0.675460        -0.879184         2.000542
 C         1.175926        -0.224800         0.791362
 C         0.266068         0.162792        -0.469286
 C         2.419237        -0.966519         0.786440
 O         3.324614         0.140087         0.635465
 H         3.208208         2.803140         1.150266
 H         2.034196         2.432465        -0.075324
 H         1.464836         2.993116         1.570460
 H         3.499330         0.367686         3.191334
 H         1.820309         0.769380         3.555182
 H         2.302938        -1.878346         2.875470
 H        -0.592877         0.795080        -0.221687
 H         1.003225         0.781039        -1.050885
 H        -0.094510        -0.768913        -1.063317
 H         2.694741        -1.909401         0.331050
