19
Iteration:  1606charge 0 multiplicity 1
 C         2.469607         2.353084         0.742253
 C         2.369488         0.883286         1.148412
 C         2.652119         0.359372         2.589044
 C         2.015830        -0.995424         2.440062
 O         0.593524        -0.543046         2.158714
 C         1.114997        -0.104311         0.876617
 C         0.003889         0.347247        -0.095675
 C         2.292340        -1.099713         0.871125
 O         3.389230        -0.211683         0.441074
 H         1.482252         2.939501         0.520395
 H         3.029427         2.851888         1.628962
 H         3.119057         2.314254        -0.143144
 H         3.756069         0.367138         2.887274
 H         2.151081         0.819489         3.446459
 H         2.183345        -1.823140         3.097523
 H        -0.947720         0.192177         0.523178
 H         0.016341         1.337897        -0.626949
 H        -0.256327        -0.351504        -0.942922
 H         2.297133        -2.060372         0.489067
