19
Iteration:  4199
 C         1.551380         2.502335         1.600543
 C         1.876608         1.032051         1.558597
 C         1.654530         0.142205         2.847987
 C         2.044655        -1.183821         2.137777
 O         0.953605        -1.345611         1.221341
 C         1.558184        -0.226290         0.455156
 C         1.049645        -0.063559        -0.956089
 C         2.873381        -0.583435         0.971501
 O         3.272149         0.725727         1.320230
 H         0.760748         2.978258         2.265372
 H         2.565819         2.816262         1.944347
 H         1.600419         2.887593         0.531254
 H         2.543856         0.395142         3.556785
 H         0.681414         0.169657         3.283619
 H         2.291387        -1.923401         2.922270
 H         0.204083        -0.746206        -1.104022
 H         0.648620         0.934063        -1.051331
 H         1.805974        -0.187973        -1.717859
 H         3.563741        -1.398278         0.653531
