19
Iteration:  1261
 C         2.534514         2.303460         0.718412
 C         2.365451         0.825876         1.180082
 C         2.710234         0.277603         2.660081
 C         2.001873        -0.970583         2.394511
 O         0.579489        -0.473812         2.141039
 C         1.070017        -0.113654         0.888947
 C         0.051006         0.243173        -0.106207
 C         2.352063        -1.056718         0.879180
 O         3.251391        -0.092110         0.432626
 H         2.100177         2.920007         1.587835
 H         3.594360         2.637011         0.639061
 H         1.900477         2.663485        -0.146875
 H         3.704335         0.156713         2.789771
 H         2.191172         0.898912         3.453666
 H         2.010873        -1.803864         3.184397
 H        -0.912869        -0.130575         0.192742
 H        -0.028454         1.362594        -0.261754
 H         0.191053        -0.158685        -1.101237
 H         2.501618        -2.162364         0.442494
