19
Iteration:  1871
 C         2.437273         2.358138         0.828401
 C         2.317274         0.948101         1.231144
 C         2.616797         0.430996         2.694146
 C         2.063887        -1.062964         2.387027
 O         0.590925        -0.667926         2.156139
 C         1.071123        -0.214486         0.852834
 C         0.211053         0.202907        -0.287754
 C         2.297220        -1.034497         0.786390
 O         3.265884        -0.005657         0.560977
 H         3.041571         2.367887        -0.077254
 H         1.463091         2.780538         0.621711
 H         3.115493         2.883457         1.542058
 H         3.623251         0.657874         3.031136
 H         1.924739         0.958405         3.423586
 H         2.286369        -2.001129         2.967835
 H        -0.271692        -0.590089        -0.846362
 H        -0.624343         0.878294         0.004078
 H         0.818977         0.775074        -0.920813
 H         2.304176        -2.036578         0.220587
