19
Iteration:   420charge 0 multiplicity 1
 C         2.561491         2.313800         0.702949
 C         2.354615         0.875945         1.194614
 C         2.804820         0.323697         2.583496
 C         1.960862        -1.031469         2.442943
 O         0.566235        -0.601776         2.274530
 C         1.052675         0.010662         0.982310
 C         0.193345         0.240428        -0.200966
 C         2.187300        -1.074340         0.883967
 O         3.174722        -0.065466         0.426250
 H         1.708218         2.838726         0.781235
 H         3.420676         2.873357         1.057264
 H         2.767568         2.406775        -0.338059
 H         3.902407         0.198675         2.596529
 H         2.550118         0.834793         3.473799
 H         1.925465        -1.890741         3.192977
 H        -0.676943        -0.388473        -0.513640
 H        -0.194855         1.195516        -0.318755
 H         0.864844         0.126891        -1.130284
 H         2.055771        -1.986260         0.267443
