19
Iteration:   606
 C         2.482369         2.304695         0.870567
 C         2.450579         0.825378         1.178029
 C         2.737291         0.402891         2.613688
 C         1.974976        -0.913437         2.435136
 O         0.612855        -0.479380         2.176315
 C         1.150300        -0.070272         0.879798
 C         0.017061         0.236364        -0.185153
 C         2.230480        -1.126389         0.883848
 O         3.273616        -0.220266         0.346252
 H         1.482203         2.677756         1.063084
 H         3.287614         2.775989         1.474774
 H         2.699070         2.571954        -0.191047
 H         3.757498         0.466345         2.890161
 H         2.184973         1.081506         3.374974
 H         1.984298        -1.836688         3.169504
 H        -0.995946        -0.223362         0.101887
 H        -0.105086         1.326523        -0.112432
 H         0.404229        -0.050270        -1.178175
 H         2.173170        -2.072147         0.272706
