19
Iteration:  2839charge 0 multiplicity 1
 C         1.709747         2.414272         1.297684
 C         2.072205         0.936454         1.485586
 C         2.091310         0.242425         2.936191
 C         2.061073        -1.167815         2.219398
 O         0.746337        -1.040443         1.566697
 C         1.400205        -0.171240         0.595262
 C         0.651509        -0.000895        -0.712716
 C         2.809106        -0.774060         0.855712
 O         3.369502         0.536971         0.991576
 H         1.443432         2.476967         0.224339
 H         0.777101         2.573033         1.915229
 H         2.352152         3.235294         1.560424
 H         2.993707         0.538404         3.399208
 H         1.196464         0.345862         3.582257
 H         2.107101        -2.156292         2.719753
 H        -0.273242        -0.509377        -0.910180
 H         0.716964         1.054189        -1.000847
 H         1.399134        -0.394365        -1.403064
 H         3.472418        -1.414102         0.197196
