19
Iteration:  3364
 C         1.235320         2.331186         1.491842
 C         1.878624         0.985224         1.566639
 C         1.654769         0.191548         2.864201
 C         2.098561        -1.165902         2.207043
 O         0.937982        -1.287899         1.121887
 C         1.669634        -0.170007         0.487830
 C         1.065161         0.088481        -0.879294
 C         3.057897        -0.627131         1.036949
 O         3.339184         0.675144         1.320062
 H         1.310241         2.770388         0.488685
 H         0.242597         2.228196         1.908673
 H         1.764410         3.104871         2.132904
 H         2.429934         0.515956         3.614581
 H         0.659931         0.076518         3.132893
 H         2.256296        -2.140144         2.715064
 H         0.349750        -0.740490        -0.908865
 H         0.636531         1.050383        -0.945393
 H         1.729263        -0.068081        -1.698555
 H         3.856377        -1.151439         0.521883
