19
Iteration:  4004
 C         1.492938         2.435702         1.304925
 C         1.919961         0.930759         1.630589
 C         1.655740         0.149864         2.887809
 C         2.085141        -1.216580         2.195199
 O         0.984320        -1.430166         1.265536
 C         1.555165        -0.266714         0.535334
 C         1.015319         0.278949        -0.795180
 C         2.896456        -0.598185         0.956802
 O         3.276986         0.695640         1.273643
 H         0.405678         2.447233         1.178190
 H         1.669856         3.023040         2.176444
 H         2.013578         2.736696         0.367284
 H         2.392945         0.388004         3.738519
 H         0.631788         0.293840         3.132337
 H         2.503814        -2.089887         2.752352
 H         0.784872        -0.571159        -1.572489
 H         0.194712         1.033978        -0.735883
 H         1.914803         0.739623        -1.310137
 H         3.442672        -1.380308         0.403685
