19
Iteration:  1761
 C         2.547490         2.426450         0.692993
 C         2.422766         0.936177         1.176207
 C         2.624665         0.386318         2.760666
 C         2.023237        -1.062956         2.435465
 O         0.586473        -0.720517         2.109370
 C         1.108082        -0.153212         0.930505
 C         0.121685         0.264019        -0.191164
 C         2.283688        -1.064519         0.875857
 O         3.215390        -0.038812         0.449429
 H         3.237994         3.040529         1.395587
 H         2.847302         2.386539        -0.377687
 H         1.529324         2.940237         0.657829
 H         3.666840         0.364272         2.928471
 H         1.906778         0.966657         3.501464
 H         2.026404        -1.792864         3.263718
 H         0.545497         1.143202        -0.736875
 H        -0.116018        -0.510013        -1.012372
 H        -0.861627         0.333222         0.280154
 H         2.377315        -2.077235         0.335016
