19
Iteration:   959
 C         2.638317         2.231229         0.644400
 C         2.450441         0.888161         1.221775
 C         2.710037         0.398924         2.647244
 C         1.990481        -0.918020         2.415702
 O         0.592053        -0.659162         2.150094
 C         1.063771        -0.092058         0.868716
 C        -0.048474         0.332989        -0.109316
 C         2.206497        -1.038409         0.851083
 O         3.284444        -0.159810         0.493489
 H         2.130684         3.145289         1.117572
 H         3.698934         2.553039         0.711217
 H         2.024250         2.406769        -0.270238
 H         3.764903         0.184312         2.814635
 H         2.360574         1.014958         3.427457
 H         2.260617        -1.737563         3.221356
 H        -0.460830        -0.463359        -0.706609
 H        -0.812493         0.701459         0.633509
 H         0.161213         1.145773        -0.878813
 H         2.283664        -2.049933         0.498699
