19
Iteration:  4064charge 0 multiplicity 1
 C         1.466980         2.455236         1.696145
 C         1.940299         1.001087         1.568397
 C         1.778907         0.178524         2.841291
 C         1.983003        -1.153477         2.135512
 O         0.817347        -1.204253         1.188922
 C         1.540740        -0.222868         0.429199
 C         0.923966        -0.179067        -1.004177
 C         3.027824        -0.582252         1.017642
 O         3.433822         0.717292         1.288415
 H         0.537791         2.713061         1.167784
 H         1.340439         2.764572         2.775795
 H         2.195667         3.246280         1.367655
 H         2.521970         0.446374         3.571547
 H         0.762417         0.406471         3.332293
 H         2.286734        -2.089728         2.709268
 H         1.153109        -1.194824        -1.230170
 H        -0.184037        -0.108921        -1.051128
 H         1.417288         0.501201        -1.732455
 H         3.595706        -1.411953         0.576307
