19
Iteration:  4901
 C         1.187938         2.194528         1.534927
 C         1.749316         0.848031         1.657943
 C         1.898085         0.095327         2.900316
 C         2.289521        -1.199618         2.124169
 O         1.085151        -1.398323         1.263933
 C         1.491091        -0.246863         0.560569
 C         1.038333         0.251948        -0.805310
 C         2.950221        -0.548228         0.859780
 O         3.175750         0.919478         1.130634
 H         0.219663         2.118326         1.048794
 H         0.976991         2.834264         2.440225
 H         1.835728         2.861070         0.879856
 H         2.681091         0.491992         3.596840
 H         0.986593        -0.057486         3.468628
 H         2.516442        -2.056811         2.782420
 H         0.395958         1.120560        -0.937977
 H         1.999477         0.587341        -1.207752
 H         0.722017        -0.593405        -1.451511
 H         3.820433        -0.945982         0.413054
