19
Iteration:  1893
 C         2.438728         2.354336         0.834818
 C         2.343500         0.963584         1.207108
 C         2.483207         0.386839         2.669999
 C         1.983738        -0.963524         2.427346
 O         0.629984        -0.812727         2.049490
 C         1.177537        -0.053636         0.901674
 C         0.222005         0.253301        -0.201934
 C         2.369466        -1.078428         0.873232
 O         3.256229        -0.030860         0.463675
 H         2.601508         2.464845        -0.227383
 H         1.421298         2.691533         1.004141
 H         3.313903         2.881650         1.304730
 H         3.512710         0.478760         3.041292
 H         1.851127         0.968906         3.389447
 H         2.239096        -1.767868         3.172151
 H        -0.610615        -0.448167        -0.190633
 H        -0.290005         1.263487        -0.194679
 H         0.719344         0.185150        -1.131776
 H         2.414168        -2.137692         0.414463
