19
Iteration:  1320
 C         2.543822         2.330021         0.639222
 C         2.329758         0.899079         1.208166
 C         2.689606         0.322211         2.647722
 C         1.962209        -1.032643         2.444735
 O         0.638360        -0.604825         2.244436
 C         1.097269        -0.137637         0.897515
 C         0.083096         0.378071        -0.134712
 C         2.301355        -1.194086         0.856256
 O         3.208312        -0.054920         0.404493
 H         1.611181         2.832048         0.662672
 H         3.313379         2.899566         1.137140
 H         2.903740         2.221794        -0.377716
 H         3.848701         0.444893         2.920599
 H         2.214051         1.068633         3.203160
 H         2.067175        -1.643390         3.309400
 H        -0.744395        -0.383132         0.009851
 H        -0.262363         1.349722         0.199230
 H         0.646034         0.533140        -1.130089
 H         2.334547        -2.116369         0.319681
