19
Iteration:  4332
 C         1.513804         2.425487         1.447840
 C         1.842757         0.973833         1.588067
 C         1.724233         0.104761         2.930297
 C         2.110993        -1.170023         2.188311
 O         0.992705        -1.427481         1.197455
 C         1.492202        -0.244376         0.490268
 C         0.992967         0.070208        -0.901793
 C         2.946529        -0.550249         0.925213
 O         3.257643         0.805625         1.360796
 H         0.385272         2.666590         1.443705
 H         2.094677         3.050800         2.194033
 H         1.837004         2.629219         0.434130
 H         2.320328         0.238267         3.851664
 H         0.712423         0.126974         3.400841
 H         2.506801        -2.099136         2.473739
 H         1.339290         1.020901        -1.270576
 H         1.267454        -0.589760        -1.708969
 H        -0.124938         0.203141        -0.863754
 H         3.757418        -1.173280         0.436055
