19
Iteration:  1130
 C         2.551882         2.149042         0.646956
 C         2.369955         0.827488         1.233001
 C         2.704756         0.379571         2.665955
 C         2.007365        -0.997271         2.373613
 O         0.611517        -0.568350         2.150476
 C         1.097406         0.028001         0.952206
 C         0.052529         0.366450        -0.046795
 C         2.298855        -1.059130         0.873187
 O         3.233058        -0.115862         0.408027
 H         1.601761         2.693895         0.638050
 H         3.215009         2.834242         0.984436
 H         2.970480         1.965371        -0.325140
 H         3.676692         0.439467         3.019108
 H         1.982953         0.943344         3.409563
 H         2.092548        -1.984100         2.990258
 H        -0.324496        -0.523654        -0.537932
 H        -0.828539         0.696792         0.531014
 H         0.344050         1.039631        -0.842191
 H         2.333644        -2.048485         0.163203
