19
Iteration:  3757charge 0 multiplicity 1
 C         1.596174         2.486816         1.732068
 C         1.781350         1.014172         1.547403
 C         1.688466         0.172661         2.820516
 C         2.007866        -1.183967         2.136453
 O         0.937203        -1.373155         1.158800
 C         1.559805        -0.322275         0.464472
 C         1.155649        -0.084775        -0.965785
 C         2.902571        -0.510270         1.036870
 O         3.231247         0.803775         1.263520
 H         0.678036         2.686540         2.286688
 H         2.515638         2.846507         2.192026
 H         1.579979         3.054032         0.802411
 H         2.330655         0.554454         3.615908
 H         0.724730         0.061629         3.272458
 H         2.361237        -2.016946         2.740925
 H         1.179619        -1.098947        -1.438530
 H         0.095277         0.163317        -0.948117
 H         1.616055         0.664947        -1.621748
 H         3.499483        -1.230556         0.409732
