19
Iteration:  3464charge 0 multiplicity 1
 C         1.247864         2.330707         1.505132
 C         1.870175         0.948350         1.572326
 C         1.666727         0.190460         2.918618
 C         2.022069        -1.160776         2.125202
 O         0.880891        -1.249665         1.154805
 C         1.602595        -0.260164         0.482918
 C         1.226819         0.127819        -0.880742
 C         2.992726        -0.673522         1.020909
 O         3.397927         0.707213         1.294719
 H         0.222470         2.289351         1.091259
 H         1.051132         2.618422         2.570758
 H         1.717848         3.110987         0.831553
 H         2.668789         0.530386         3.448924
 H         0.812575         0.436333         3.486546
 H         2.172567        -2.095120         2.712259
 H         1.286812        -0.735364        -1.617001
 H         0.166377         0.036440        -0.669290
 H         1.572338         1.087910        -1.209403
 H         3.907489        -1.193786         0.563605
