19
Iteration:  4650charge 0 multiplicity 1
 C         1.345478         2.454941         1.433257
 C         1.765671         0.969394         1.554514
 C         1.710514         0.007028         2.936648
 C         2.268080        -1.245343         2.060129
 O         1.069590        -1.477979         1.217881
 C         1.558214        -0.228887         0.464257
 C         0.872418         0.122711        -0.778404
 C         3.028086        -0.502900         0.899727
 O         3.292735         0.853827         1.375510
 H         0.363508         2.684830         1.188517
 H         1.664528         3.003789         2.341996
 H         1.769963         2.977700         0.576464
 H         2.282585         0.434238         3.772571
 H         0.628131        -0.187090         3.111009
 H         2.510978        -2.006246         2.821261
 H         1.664916         0.456469        -1.583265
 H         0.377202        -0.836542        -1.002907
 H         0.116912         0.882301        -0.636109
 H         3.833538        -0.909649         0.412217
