19
Iteration:  3110charge 0 multiplicity 1
 C         1.612433         2.436537         1.469729
 C         1.872948         0.991932         1.563616
 C         1.800269         0.155145         2.861833
 C         2.089517        -1.101296         2.217820
 O         0.929314        -1.358547         1.374037
 C         1.386540        -0.183528         0.568655
 C         0.873507        -0.020175        -0.896250
 C         2.897982        -0.666786         0.947641
 O         3.378347         0.744065         1.118938
 H         1.701393         2.696591         0.403366
 H         0.639362         2.828660         1.878230
 H         2.369521         2.929456         2.066223
 H         2.573823         0.460637         3.460695
 H         0.853910         0.075630         3.457219
 H         2.300167        -1.962605         2.883280
 H         0.034208         0.612495        -0.896554
 H         1.623726         0.364307        -1.581937
 H         0.557212        -0.977311        -1.237983
 H         3.608575        -1.097263         0.221870
