19
Iteration:  4997
 C         1.410392         2.501627         1.708859
 C         1.771346         1.007005         1.581186
 C         1.754792         0.014004         2.879875
 C         2.190356        -1.190966         2.077436
 O         1.109059        -1.526917         1.249360
 C         1.517976        -0.199244         0.494616
 C         1.041900        -0.042646        -0.862906
 C         2.942045        -0.474955         0.843573
 O         3.119128         0.946097         1.192967
 H         0.669392         2.578091         2.476846
 H         2.375869         2.973991         2.035911
 H         1.175674         3.034529         0.773286
 H         2.449617         0.390521         3.674130
 H         0.847671        -0.322906         3.350526
 H         2.601683        -2.140906         2.575157
 H         0.091193        -0.621465        -0.918389
 H         0.822104         0.970919        -1.071446
 H         1.727342        -0.451330        -1.583986
 H         3.623527        -1.050884         0.270274
