19
Iteration:  3419
 C         1.534821         2.481442         1.516544
 C         1.801898         1.006380         1.657866
 C         1.533975         0.086724         2.865670
 C         2.131099        -1.138749         2.106069
 O         1.034156        -1.387282         1.147734
 C         1.591511        -0.227012         0.510074
 C         1.098849        -0.059336        -0.893872
 C         2.915230        -0.520922         0.982303
 O         3.210361         0.786571         1.360142
 H         0.914290         2.768278         0.663146
 H         1.115617         2.913360         2.409637
 H         2.518110         2.927433         1.208558
 H         2.151828         0.265510         3.857662
 H         0.584691        -0.271991         3.057404
 H         2.532949        -2.070585         2.551032
 H         0.581678        -0.890471        -1.462854
 H         0.495299         0.795859        -0.890175
 H         2.028876         0.187361        -1.347728
 H         3.456811        -1.111703         0.232807
