19
Iteration:  2228
 C         2.175150         2.398360         0.951736
 C         2.236127         0.962260         1.245534
 C         2.411119         0.368103         2.807521
 C         2.012653        -1.074650         2.407156
 O         0.589129        -0.921200         1.876065
 C         1.264203        -0.188808         0.831194
 C         0.336994         0.158567        -0.315724
 C         2.504820        -0.988844         0.785946
 O         3.343964         0.242211         0.642311
 H         3.157227         2.641077         0.483285
 H         1.403387         2.532826         0.212399
 H         2.152114         3.143513         1.787005
 H         3.424457         0.548710         3.046336
 H         1.773992         0.819944         3.623776
 H         2.089495        -1.970977         2.997009
 H         0.300206         1.240759        -0.396396
 H         0.934674        -0.149082        -1.165760
 H        -0.576423        -0.282163        -0.200119
 H         2.688185        -1.846047         0.098188
