19
Iteration:  2930charge 0 multiplicity 1
 C         1.769530         2.408000         1.360349
 C         1.962093         1.016309         1.540145
 C         1.977406         0.198166         2.840403
 C         2.007953        -1.118431         2.255736
 O         0.847862        -1.188199         1.375139
 C         1.435903        -0.183115         0.570996
 C         0.624192        -0.073314        -0.722558
 C         2.837598        -0.647597         0.849591
 O         3.402576         0.605340         1.149151
 H         0.936440         2.794344         2.100504
 H         2.771264         2.868746         1.495698
 H         1.563387         2.570957         0.239620
 H         2.926628         0.501348         3.384499
 H         1.025136         0.459602         3.375555
 H         2.181973        -1.970555         2.904631
 H         0.747120         0.807620        -1.329370
 H         1.153493        -0.878330        -1.253858
 H        -0.481525        -0.209915        -0.587950
 H         3.375361        -1.374449         0.285332
