19
Iteration:  2155charge 0 multiplicity 1
 C         2.334564         2.457188         1.097062
 C         2.328393         0.971954         1.284276
 C         2.473801         0.398530         2.787415
 C         1.986388        -0.989378         2.365157
 O         0.605778        -0.784021         1.914504
 C         1.193131        -0.162818         0.726050
 C         0.133811        -0.012246        -0.399014
 C         2.454715        -0.990655         0.811921
 O         3.399098         0.110117         0.570822
 H         2.460226         2.964095         2.005896
 H         2.988265         2.843892         0.349559
 H         1.280938         2.765049         0.833609
 H         3.587488         0.471370         3.048488
 H         1.952348         0.849140         3.566040
 H         2.128499        -1.794134         3.085431
 H        -0.670682        -0.661979        -0.043621
 H        -0.150752         1.049364        -0.261742
 H         0.493616        -0.402500        -1.371432
 H         2.570028        -1.934338         0.280626
