19
Iteration:  4450
 C         1.360763         2.311016         1.331396
 C         1.853142         0.885092         1.619607
 C         1.714819         0.095196         2.947057
 C         2.194366        -1.216343         2.130703
 O         1.011020        -1.409232         1.241864
 C         1.506120        -0.203081         0.537180
 C         0.977928         0.225052        -0.864921
 C         3.017917        -0.544228         0.968221
 O         3.274554         0.799602         1.279840
 H         0.235383         2.395082         1.476600
 H         1.717417         3.091069         1.988004
 H         1.593857         2.712223         0.371577
 H         2.310625         0.383875         3.828797
 H         0.743728        -0.061916         3.424072
 H         2.547324        -1.961685         2.817302
 H         0.702781        -0.589549        -1.522515
 H         0.093457         0.830540        -0.561418
 H         1.813415         0.944092        -1.200821
 H         3.759880        -1.185608         0.336999
