19
Iteration:   285
 C         2.687335         2.317790         0.780351
 C         2.432307         0.853641         1.171289
 C         2.756158         0.415485         2.566326
 C         1.973822        -0.894663         2.504881
 O         0.575680        -0.624581         2.194489
 C         1.057860        -0.110650         0.890219
 C         0.043023         0.271621        -0.214325
 C         2.242483        -1.108365         0.943794
 O         3.111826        -0.124865         0.362967
 H         1.974343         2.797454         1.385880
 H         3.744455         2.505891         0.894788
 H         2.422621         2.698473        -0.187236
 H         3.778796         0.086574         2.595115
 H         2.560415         1.121377         3.433028
 H         2.060043        -1.654260         3.309960
 H        -0.266767        -0.562772        -0.849921
 H        -0.853707         0.694144         0.425015
 H         0.565100         0.962506        -0.843799
 H         2.258379        -2.161628         0.546524
