19
Iteration:  1454charge 0 multiplicity 1
 C         2.552265         2.168356         0.632929
 C         2.385768         0.842069         1.205884
 C         2.618154         0.360138         2.690834
 C         2.016517        -0.983246         2.441263
 O         0.618724        -0.613987         2.170119
 C         1.089701        -0.045427         0.930025
 C         0.143895         0.355632        -0.097817
 C         2.257771        -1.064442         0.826956
 O         3.206528        -0.050846         0.439896
 H         2.590434         2.935760         1.423715
 H         3.570945         2.171172         0.199983
 H         1.826809         2.423147        -0.093453
 H         3.722243         0.586318         2.733125
 H         1.993455         0.920063         3.501535
 H         1.995753        -1.632126         3.354560
 H        -0.114992        -0.636202        -0.660336
 H        -0.877804         0.776552         0.252989
 H         0.586763         0.888309        -0.947823
 H         2.299766        -1.956386         0.259268
