19
Iteration:  3304charge 0 multiplicity 1
 C         1.297372         2.400247         1.439149
 C         1.785904         0.977665         1.556639
 C         1.791141         0.086182         2.853124
 C         2.049452        -1.201792         2.215682
 O         0.977755        -1.356550         1.252642
 C         1.554443        -0.211558         0.550244
 C         1.181437         0.071967        -0.888923
 C         2.914711        -0.597130         1.000406
 O         3.266037         0.788299         1.241715
 H         2.281969         2.892857         1.570580
 H         0.835042         2.826456         0.524356
 H         0.877335         2.757168         2.378728
 H         2.721148         0.297509         3.424283
 H         0.997681         0.182922         3.704895
 H         2.307385        -2.180007         2.665413
 H         0.472990        -0.682475        -1.373133
 H         0.514871         0.994642        -0.997723
 H         2.103657         0.221379        -1.498865
 H         3.671889        -1.085954         0.314018
