19
Iteration:   773
 C         2.656818         2.282428         0.718520
 C         2.440588         0.868846         1.186429
 C         2.582779         0.438635         2.589725
 C         2.037235        -0.943386         2.455633
 O         0.644305        -0.648962         2.262694
 C         1.030008        -0.038319         0.966377
 C         0.133714         0.266247        -0.191248
 C         2.206851        -1.079002         0.835474
 O         3.156018        -0.153563         0.365559
 H         2.293457         2.862642         1.680356
 H         3.709259         2.436818         0.547741
 H         1.919756         2.562585        -0.037176
 H         3.685854         0.583149         2.887731
 H         1.924578         0.943442         3.412707
 H         2.265059        -1.722293         3.100794
 H        -0.674826        -0.419352        -0.273957
 H        -0.360771         1.349087        -0.132377
 H         0.730580         0.180748        -1.093109
 H         2.211101        -2.049383         0.465503
