19
Iteration:  1421charge 0 multiplicity 1
 C         2.608253         2.337168         0.635890
 C         2.449873         0.914038         1.197831
 C         2.652837         0.385846         2.680573
 C         1.976769        -0.947889         2.463391
 O         0.629480        -0.630189         2.174718
 C         1.074118        -0.089902         0.898922
 C         0.011407         0.290851        -0.157178
 C         2.206365        -1.082369         0.816539
 O         3.257936        -0.170903         0.459978
 H         2.328195         3.044079         1.444797
 H         3.691077         2.527882         0.395967
 H         1.998983         2.511611        -0.201735
 H         3.820268         0.409363         2.950551
 H         2.102572         0.906224         3.600922
 H         2.034486        -1.755850         3.292501
 H         0.108445        -0.660191        -0.844703
 H        -1.000835         0.383393         0.396187
 H         0.343828         1.227828        -0.648626
 H         2.185913        -2.036130         0.367301
