19
Iteration:  2445
 C         2.193595         2.493125         1.205765
 C         2.090531         0.909399         1.382863
 C         2.187159         0.331285         2.817554
 C         2.027800        -1.097932         2.278225
 O         0.649608        -1.030457         1.811999
 C         1.346908        -0.144747         0.656993
 C         0.427259        -0.037466        -0.484499
 C         2.633447        -0.856954         0.813549
 O         3.341871         0.423153         0.715700
 H         2.920512         2.860461         1.924006
 H         2.545290         2.651156         0.216758
 H         1.181333         2.914542         1.330996
 H         3.214212         0.592359         3.162664
 H         1.374815         0.681128         3.492134
 H         2.248319        -2.008393         2.885011
 H         0.041019         1.046634        -0.601674
 H         0.876193        -0.472037        -1.466996
 H        -0.526431        -0.538796        -0.308672
 H         2.954782        -1.730249         0.214841
