19
Iteration:  4958charge 0 multiplicity 1
 C         1.342038         2.286915         1.562486
 C         1.875716         0.971253         1.624268
 C         1.711595         0.066825         2.895764
 C         2.178214        -1.169083         2.097393
 O         1.101915        -1.356704         1.170885
 C         1.673376        -0.197625         0.372548
 C         0.761580        -0.023427        -0.784102
 C         3.023503        -0.458533         0.867700
 O         3.309760         0.893610         1.341003
 H         0.240461         2.139881         1.773298
 H         1.736146         2.803391         2.420547
 H         1.282307         2.940392         0.658325
 H         2.374393         0.306075         3.726329
 H         0.629927         0.017679         3.192528
 H         2.477096        -2.040221         2.604245
 H        -0.153723        -0.463225        -0.442213
 H         0.632018         1.045571        -1.153421
 H         1.055211        -0.686656        -1.671952
 H         3.945830        -0.920661         0.402195
