19
Iteration:   520charge 0 multiplicity 1
 C         2.665929         2.233406         0.591098
 C         2.337026         0.871069         1.250259
 C         2.672959         0.356648         2.680395
 C         2.007283        -0.969907         2.435971
 O         0.526578        -0.608494         2.187367
 C         1.030700        -0.074319         0.920594
 C         0.106715         0.295019        -0.092751
 C         2.295363        -1.089516         0.826168
 O         3.251134        -0.034879         0.448621
 H         2.492640         3.182835         1.149506
 H         3.775410         2.329119         0.512939
 H         2.025606         2.319478        -0.330350
 H         3.759179         0.234101         2.697444
 H         1.997557         0.818170         3.538387
 H         2.111094        -1.897167         3.147019
 H        -0.488614        -0.565221        -0.601879
 H        -0.721911         0.903689         0.454299
 H         0.379073         0.905858        -0.973381
 H         2.399460        -1.967658         0.235830
