19
Iteration:  4415
 C         1.313094         2.392514         1.574495
 C         1.818287         1.059223         1.563403
 C         1.830559         0.168218         2.880353
 C         2.115942        -1.241146         2.108373
 O         0.893353        -1.329429         1.222671
 C         1.526235        -0.196922         0.572887
 C         1.129151        -0.026312        -0.895175
 C         2.948204        -0.582526         0.925567
 O         3.300310         0.791842         1.255353
 H         0.311578         2.184767         1.930377
 H         1.907405         2.835291         2.343959
 H         1.315516         2.943289         0.615116
 H         2.738684         0.364014         3.481172
 H         0.960246        -0.024382         3.412917
 H         2.309043        -2.163777         2.740624
 H         1.791712        -0.534221        -1.631040
 H         0.087456        -0.332228        -1.100166
 H         1.113626         1.054009        -1.278154
 H         3.769248        -1.154628         0.414339
