19
Iteration:  2689
 C         1.751541         2.469191         1.242029
 C         2.186834         0.973399         1.425640
 C         2.088686         0.351106         2.802092
 C         2.052695        -1.158427         2.298177
 O         0.724873        -1.066513         1.640869
 C         1.304196        -0.258952         0.647419
 C         0.633848         0.129543        -0.631726
 C         2.761470        -0.875233         0.958090
 O         3.431214         0.422855         0.792997
 H         1.371117         2.750228         2.290153
 H         2.637912         3.132654         1.190681
 H         0.869261         2.528052         0.687305
 H         3.088195         0.319607         3.227548
 H         1.262977         0.426943         3.641138
 H         2.257401        -1.933308         3.014283
 H         0.707511         1.207938        -0.609522
 H         1.065483        -0.347054        -1.567464
 H        -0.526210        -0.235527        -0.632217
 H         3.001962        -1.679825         0.247324
