19
Iteration:   250charge 0 multiplicity 1
 C         2.496640         2.299593         0.787049
 C         2.425866         0.882715         1.143180
 C         2.691033         0.343999         2.622433
 C         2.007506        -1.018657         2.379105
 O         0.701365        -0.345244         2.151224
 C         1.191793        -0.008590         0.867738
 C         0.061896         0.192051        -0.090548
 C         2.188583        -1.160125         0.779582
 O         3.209504        -0.244781         0.483968
 H         1.780345         2.703080         1.514639
 H         3.275300         2.816228         1.295167
 H         2.300604         2.513565        -0.266106
 H         3.791637         0.340246         2.856166
 H         2.171972         0.989007         3.435997
 H         2.006838        -1.751264         3.238600
 H        -0.596002        -0.730796        -0.101214
 H        -0.722092         1.086171         0.225528
 H         0.173782         0.567430        -1.073294
 H         2.060953        -2.027931         0.184950
