19
Iteration:  4156charge 0 multiplicity 1
 C         1.440949         2.375922         1.334839
 C         1.932838         0.959700         1.626861
 C         1.667589         0.147565         2.797017
 C         1.962888        -1.148764         2.158435
 O         0.934736        -1.240361         1.203057
 C         1.648755        -0.235548         0.476618
 C         0.917244         0.133747        -0.819295
 C         2.986975        -0.685796         1.053053
 O         3.456750         0.674930         1.385800
 H         0.528783         2.450449         2.020327
 H         2.141727         3.175489         1.612742
 H         1.080400         2.365738         0.278907
 H         2.295428         0.380109         3.759127
 H         0.630117         0.151284         3.042245
 H         2.193729        -2.076378         2.705887
 H         0.566533        -0.808871        -1.270963
 H         0.063336         0.771994        -0.629161
 H         1.448988         0.777822        -1.504590
 H         3.695777        -1.261054         0.375232
