19
Iteration:  1368charge 0 multiplicity 1
 C         2.612891         2.408744         0.818989
 C         2.492247         0.845633         1.138363
 C         2.681236         0.393752         2.602971
 C         2.005816        -0.976344         2.450411
 O         0.618600        -0.533981         2.208653
 C         1.105040        -0.004853         0.910677
 C        -0.004627         0.171080        -0.177762
 C         2.231410        -1.100559         0.837086
 O         3.182214        -0.229060         0.383693
 H         1.619854         2.852111         1.066792
 H         3.493871         2.880188         1.318551
 H         2.967991         2.511361        -0.188910
 H         3.732906         0.468979         2.863830
 H         2.043828         1.150837         3.313763
 H         2.019907        -1.765663         3.297025
 H        -0.078703        -0.836256        -0.646449
 H        -0.997139         0.404059         0.334439
 H         0.274841         1.087825        -0.649186
 H         2.189660        -1.961639         0.182089
