19
Iteration:   648
 C         2.646624         2.237819         0.596947
 C         2.300228         0.906079         1.238050
 C         2.681988         0.391066         2.691398
 C         1.960020        -1.010874         2.396297
 O         0.623782        -0.670466         2.164225
 C         1.053986        -0.051600         0.901636
 C         0.080301         0.315097        -0.069804
 C         2.268711        -1.005397         0.860883
 O         3.219838        -0.042701         0.436108
 H         2.003429         3.001028         0.848091
 H         3.732793         2.332721         0.920207
 H         2.788271         1.942764        -0.452850
 H         3.726963         0.357244         2.812325
 H         2.241346         0.783990         3.564091
 H         1.987227        -1.835888         3.239736
 H        -0.576972        -0.582469        -0.118150
 H        -0.496652         1.067354         0.203223
 H         0.518357         0.543621        -1.066302
 H         2.237555        -2.143334         0.401636
