19
Iteration:  3452charge 0 multiplicity 1
 C         1.312314         2.365852         1.537640
 C         1.857888         0.958806         1.503777
 C         1.730431         0.153040         2.828920
 C         2.002825        -1.195239         2.199960
 O         0.955979        -1.318266         1.177653
 C         1.626549        -0.223765         0.483980
 C         1.152562         0.093805        -0.913683
 C         2.964707        -0.618823         1.070453
 O         3.277664         0.754395         1.306507
 H         0.389410         2.428386         0.969672
 H         1.166526         2.743340         2.549218
 H         2.109817         3.037989         1.142311
 H         2.537273         0.403113         3.635383
 H         0.791407         0.125333         3.296455
 H         2.173924        -2.094982         2.838248
 H         1.274327        -0.733849        -1.674907
 H         0.192112         0.548610        -0.959201
 H         1.789543         0.904647        -1.268757
 H         3.653072        -1.304067         0.528008
