19
Iteration:  2727charge 0 multiplicity 1
 C         1.861584         2.432598         1.203751
 C         2.115783         0.987175         1.472931
 C         2.059201         0.234417         2.891893
 C         2.064378        -1.171160         2.204601
 O         0.732865        -1.086583         1.605039
 C         1.357563        -0.226767         0.650966
 C         0.519809         0.054981        -0.633981
 C         2.755346        -0.767846         0.838610
 O         3.430867         0.509312         1.002047
 H         2.173766         3.080487         1.989980
 H         2.262476         2.718099         0.230753
 H         0.755887         2.689198         1.018028
 H         3.093864         0.489351         3.249941
 H         1.371849         0.560598         3.584894
 H         2.193405        -2.077959         2.873654
 H         1.136225         0.483291        -1.493691
 H         0.249253        -0.910300        -1.066246
 H        -0.332354         0.658061        -0.525673
 H         3.253343        -1.535444         0.223921
