19
Iteration:  3210
 C         1.467437         2.410303         1.350828
 C         1.824594         0.923823         1.657612
 C         1.720284         0.151944         2.958019
 C         2.114576        -1.224660         2.144333
 O         0.985297        -1.378177         1.350025
 C         1.454976        -0.213031         0.542967
 C         0.972137         0.107172        -0.912152
 C         2.973727        -0.583543         0.951945
 O         3.359997         0.784379         1.174008
 H         0.653720         2.785455         2.082847
 H         2.402103         2.898174         1.641907
 H         1.129659         2.718773         0.348610
 H         2.338718         0.520707         3.735310
 H         0.703914        -0.048895         3.390508
 H         2.321045        -2.027540         2.897420
 H         1.769929        -0.063938        -1.534960
 H         0.215417        -0.594941        -1.243819
 H         0.654937         1.156883        -0.986289
 H         3.540195        -1.267873         0.300433
