19
Iteration:  1284
 C         2.467339         2.302392         0.804425
 C         2.431403         0.784559         1.180831
 C         2.666380         0.508049         2.600488
 C         2.030742        -0.936696         2.421805
 O         0.644160        -0.626125         2.153534
 C         1.162272        -0.053354         0.860413
 C         0.029047         0.376601        -0.094718
 C         2.237000        -1.183234         0.817290
 O         3.299370        -0.213703         0.462526
 H         1.672862         2.873106         1.337528
 H         3.401546         2.831773         0.957591
 H         2.127974         2.427686        -0.283472
 H         3.676310         0.559993         2.900679
 H         1.996461         1.131128         3.189110
 H         2.126752        -1.736234         3.156368
 H        -0.891007        -0.037824         0.213533
 H        -0.094205         1.470740        -0.191400
 H         0.115032        -0.008503        -1.146752
 H         2.059492        -2.226472         0.265573
