19
Iteration:   450
 C         2.618899         2.257596         0.758568
 C         2.413109         0.847454         1.209264
 C         2.774023         0.394284         2.705709
 C         2.025283        -0.960248         2.430697
 O         0.587619        -0.503734         2.142401
 C         1.092070        -0.064266         0.881439
 C         0.029477         0.223671        -0.163551
 C         2.217808        -1.101995         0.859658
 O         3.174533        -0.118647         0.412991
 H         1.727705         2.855096         0.999717
 H         3.503953         2.704553         1.189918
 H         2.652889         2.282169        -0.330556
 H         3.864016         0.365955         2.846794
 H         2.213510         0.862073         3.452150
 H         2.014120        -1.723193         3.179080
 H        -0.524323        -0.632679        -0.526391
 H        -0.704593         0.922375         0.258301
 H         0.408777         0.744612        -1.125392
 H         2.168698        -2.142278         0.330807
