19
Iteration:  2841
 C         1.691667         2.427107         1.292715
 C         2.065034         0.947181         1.475098
 C         2.096927         0.234656         2.941264
 C         2.051235        -1.164789         2.219889
 O         0.761091        -1.043918         1.574682
 C         1.384823        -0.179901         0.577772
 C         0.655291        -0.002500        -0.700553
 C         2.834622        -0.778273         0.853884
 O         3.367678         0.521844         0.994175
 H         1.402035         2.553766         0.153848
 H         0.815056         2.590471         2.004643
 H         2.385991         3.264574         1.489631
 H         2.993512         0.527578         3.438352
 H         1.160156         0.330645         3.631094
 H         2.021924        -2.154984         2.681613
 H        -0.300547        -0.388505        -0.893243
 H         0.783060         1.060925        -0.959589
 H         1.445914        -0.401155        -1.417852
 H         3.458236        -1.390130         0.190969
