19
Iteration:  1133charge 0 multiplicity 1
 C         2.538026         2.158764         0.622533
 C         2.361575         0.827509         1.236060
 C         2.677682         0.382805         2.675599
 C         2.006412        -1.016078         2.376514
 O         0.635364        -0.557529         2.149762
 C         1.108235         0.036014         0.958668
 C         0.058255         0.356837        -0.037858
 C         2.280319        -1.072002         0.842295
 O         3.257566        -0.124989         0.428176
 H         1.575717         2.676162         0.651605
 H         3.301886         2.874494         1.052289
 H         2.957100         2.060824        -0.427510
 H         3.793338         0.404565         3.062944
 H         1.987669         0.929915         3.409478
 H         2.038255        -1.976651         2.937548
 H        -0.290131        -0.564359        -0.484464
 H        -0.879985         0.708311         0.478078
 H         0.194447         1.151507        -0.891504
 H         2.240788        -1.993257         0.223099
