19
Iteration:   358charge 0 multiplicity 1
 C         2.576362         2.341954         0.723611
 C         2.372067         0.884319         1.148443
 C         2.691985         0.394230         2.559406
 C         1.934142        -0.903239         2.374424
 O         0.580463        -0.572731         2.092310
 C         1.117918        -0.105295         0.817485
 C         0.006371         0.314807        -0.035229
 C         2.293137        -1.145438         0.912204
 O         3.296079        -0.211761         0.539392
 H         1.840344         2.951638         1.531981
 H         3.693483         2.641675         0.793456
 H         2.082989         2.425671        -0.324347
 H         3.775381         0.140848         2.414315
 H         2.422505         0.964323         3.561419
 H         1.995943        -1.723886         3.166268
 H        -0.825608        -0.459731         0.070030
 H        -0.230193         1.338567         0.495024
 H         0.445474         0.427055        -0.994696
 H         2.437939        -2.096801         0.511753
