19
Iteration:  1072
 C         2.594227         2.251478         0.871912
 C         2.423524         0.801686         1.137793
 C         2.669276         0.419428         2.644667
 C         2.043980        -0.920212         2.415634
 O         0.640824        -0.494137         2.199172
 C         1.080515        -0.061561         0.912969
 C         0.075448         0.212581        -0.185772
 C         2.178320        -1.111823         0.827489
 O         3.201979        -0.116366         0.349837
 H         1.746824         2.690566         1.372094
 H         3.572368         2.551006         1.308864
 H         2.343240         2.490765        -0.134269
 H         3.720547         0.380565         2.935693
 H         2.091074         0.966380         3.300647
 H         2.204640        -1.689838         3.071208
 H        -0.719897        -0.465376         0.187368
 H        -0.235533         1.236066        -0.108453
 H         0.454392        -0.027444        -1.148340
 H         2.122607        -2.023924         0.271256
