19
Iteration:  3104charge 0 multiplicity 1
 C         1.640977         2.427757         1.476383
 C         1.912849         0.969018         1.556947
 C         1.824122         0.241368         2.896006
 C         2.058798        -1.128218         2.199496
 O         0.938970        -1.400025         1.344449
 C         1.399983        -0.217508         0.541711
 C         0.867298        -0.010670        -0.870467
 C         2.884043        -0.617712         0.965813
 O         3.306708         0.738891         1.117291
 H         1.909069         2.838865         0.471878
 H         0.643439         2.804854         1.631802
 H         2.400768         2.835134         2.192376
 H         2.706918         0.605419         3.583370
 H         0.830666         0.109530         3.339119
 H         2.388075        -1.961038         2.808624
 H        -0.160361         0.512221        -0.722264
 H         1.615179         0.550250        -1.483163
 H         0.717489        -1.037011        -1.390342
 H         3.540638        -1.209185         0.327399
