19
Iteration:  4175charge 0 multiplicity 1
 C         1.499038         2.386821         1.481860
 C         2.019707         0.942990         1.482898
 C         1.607608         0.126211         2.892608
 C         1.969006        -1.195312         2.157978
 O         0.887317        -1.266729         1.159429
 C         1.581442        -0.214591         0.492500
 C         0.919678         0.026835        -0.866507
 C         3.091731        -0.574132         1.001752
 O         3.400744         0.729631         1.371791
 H         0.728387         2.496637         2.253651
 H         2.355942         3.017561         1.739386
 H         1.154349         2.748179         0.437581
 H         2.167867         0.790556         3.572226
 H         0.539313         0.219324         3.013649
 H         1.990843        -2.098204         2.873775
 H         0.263182        -0.842433        -1.028949
 H         0.160104         0.861424        -0.771612
 H         1.539016         0.149805        -1.696274
 H         3.826839        -1.293989         0.725766
