19
Iteration:  1797charge 0 multiplicity 1
 C         2.553212         2.289144         0.867034
 C         2.328885         0.801169         1.148079
 C         2.593814         0.433084         2.706454
 C         2.058175        -0.956048         2.443499
 O         0.653307        -0.658241         2.124251
 C         1.042883        -0.073478         0.840552
 C         0.040130         0.171655        -0.288443
 C         2.345625        -1.054315         0.856048
 O         3.266410        -0.005249         0.493543
 H         3.617728         2.526609         0.919812
 H         2.270106         2.591627        -0.180337
 H         1.933162         2.894485         1.661399
 H         3.664497         0.683381         2.962924
 H         2.048815         1.030920         3.404923
 H         2.115408        -1.872855         3.186209
 H         0.460474         0.511934        -1.303177
 H        -0.599585        -0.709302        -0.410470
 H        -0.581530         1.133268        -0.010238
 H         2.372492        -2.074197         0.346467
