19
Iteration:  1155charge 0 multiplicity 1
 C         2.528476         2.333109         0.653973
 C         2.494156         0.872887         1.169229
 C         2.683727         0.334763         2.633211
 C         1.994023        -0.979034         2.369913
 O         0.601970        -0.539152         2.171988
 C         1.104773        -0.042509         0.837513
 C        -0.027800         0.277763        -0.027991
 C         2.216374        -1.092560         0.814241
 O         3.299998        -0.206541         0.562110
 H         1.613494         2.833422         0.927265
 H         3.351239         3.034824         0.763110
 H         2.687653         2.217916        -0.456489
 H         3.826394         0.327655         2.992017
 H         2.098700         0.802488         3.461607
 H         2.218502        -1.751209         3.107000
 H        -0.459464        -0.436914        -0.706693
 H        -0.828212         0.627980         0.669206
 H         0.400095         1.176750        -0.658443
 H         2.305431        -1.922849         0.100088
