19
Iteration:   737charge 0 multiplicity 1
 C         2.570675         2.262456         0.761529
 C         2.349302         0.882967         1.219137
 C         2.777065         0.293059         2.666830
 C         1.971540        -0.951028         2.444419
 O         0.569210        -0.446912         2.219893
 C         1.060161        -0.081846         0.929601
 C         0.117333         0.184069        -0.242658
 C         2.251282        -1.040895         0.902664
 O         3.189975        -0.097425         0.366963
 H         2.635106         3.077550         1.511723
 H         3.435595         2.395853         0.120928
 H         1.769225         2.506913         0.035103
 H         3.736204        -0.023511         2.555919
 H         2.625068         0.812953         3.640914
 H         1.957518        -1.726138         3.256171
 H        -0.092157        -0.846439        -0.641947
 H        -0.810835         0.629589         0.042686
 H         0.537983         0.749230        -1.028574
 H         2.451721        -2.007582         0.285180
