19
Iteration:  2525charge 0 multiplicity 1
 C         1.939816         2.427413         1.085452
 C         2.151188         0.919727         1.431945
 C         2.235863         0.254665         2.899056
 C         2.108266        -1.108151         2.237409
 O         0.697185        -1.008943         1.822698
 C         1.264088        -0.197810         0.727493
 C         0.539688         0.125555        -0.621451
 C         2.608693        -0.865723         0.816214
 O         3.353817         0.416476         0.824144
 H         2.574346         2.719404         0.261739
 H         0.866180         2.569479         0.844052
 H         2.183435         3.172834         1.862194
 H         3.282989         0.406304         3.338418
 H         1.423980         0.389772         3.628995
 H         2.260298        -2.045029         2.778814
 H         1.029694        -0.368703        -1.497203
 H        -0.514770        -0.173761        -0.629894
 H         0.475402         1.248174        -0.668399
 H         3.007859        -1.668205         0.163210
