19
Iteration:  1060charge 0 multiplicity 1
 C         2.522765         2.249501         0.845665
 C         2.451337         0.840316         1.176702
 C         2.726994         0.353990         2.722580
 C         1.951571        -1.000771         2.438351
 O         0.648509        -0.405884         2.199115
 C         1.136216        -0.050406         0.858553
 C         0.027235         0.140550        -0.126788
 C         2.259568        -1.056309         0.750489
 O         3.187053        -0.126670         0.363072
 H         1.985982         2.815521         1.584258
 H         3.567472         2.745612         0.883949
 H         2.376512         2.476033        -0.202267
 H         3.824391         0.459219         2.956719
 H         2.207351         0.902956         3.356476
 H         1.832364        -1.816266         3.054368
 H        -0.946153        -0.353420        -0.097603
 H        -0.230615         1.157758        -0.321060
 H         0.406783        -0.225746        -1.094494
 H         2.267239        -1.923367         0.239662
