19
Iteration:  3267charge 0 multiplicity 1
 C         1.420636         2.407909         1.556597
 C         1.956038         0.980797         1.586048
 C         1.595577         0.123345         2.867023
 C         2.105787        -1.145165         2.180810
 O         1.004302        -1.250219         1.222806
 C         1.597508        -0.209109         0.441595
 C         0.909152        -0.100833        -0.930920
 C         2.977295        -0.549004         0.976079
 O         3.358067         0.734796         1.283622
 H         1.994126         2.913872         2.364110
 H         1.627015         3.035377         0.663081
 H         0.287296         2.368456         1.733029
 H         2.192261         0.435284         3.801096
 H         0.556846         0.126306         2.957399
 H         2.509322        -1.878110         2.886356
 H         0.964529        -1.096752        -1.441455
 H        -0.103411         0.216488        -0.735622
 H         1.356573         0.653174        -1.578440
 H         3.665780        -1.177942         0.456353
