19
Iteration:  1361
 C         2.613894         2.313680         0.795064
 C         2.498721         0.864740         1.190286
 C         2.752789         0.443059         2.568888
 C         1.977395        -0.979029         2.430604
 O         0.590078        -0.587865         2.236772
 C         1.088989         0.019675         0.933707
 C         0.025964         0.188534        -0.164847
 C         2.154622        -1.043818         0.833658
 O         3.230299        -0.185966         0.388800
 H         1.617575         2.779261         0.920830
 H         3.301665         2.860700         1.430563
 H         2.930279         2.424298        -0.311296
 H         3.758557         0.458985         2.951445
 H         2.081418         0.838445         3.251804
 H         2.075410        -1.725159         3.151033
 H        -0.065270        -0.749580        -0.648495
 H        -0.940579         0.378552         0.239432
 H         0.238617         0.926892        -0.977633
 H         2.097492        -2.056151         0.277922
