19
Iteration:  1496charge 0 multiplicity 1
 C         2.580397         2.391029         0.850190
 C         2.455666         0.857045         1.085137
 C         2.691512         0.433079         2.567016
 C         1.970622        -0.905564         2.437795
 O         0.575118        -0.573411         2.118974
 C         1.099291        -0.065776         0.915461
 C         0.024379         0.189503        -0.110391
 C         2.282981        -1.170731         0.872186
 O         3.234467        -0.163482         0.410898
 H         2.083873         2.899060         1.702546
 H         3.626384         2.792092         0.883806
 H         1.999861         2.677488        -0.004724
 H         3.687953         0.229447         3.063308
 H         2.062210         0.917940         3.256102
 H         2.077125        -1.708407         3.230830
 H        -0.915676        -0.412307        -0.061096
 H        -0.065843         1.246837         0.050897
 H         0.471632        -0.068128        -1.068396
 H         2.328639        -2.091630         0.393530
