19
Iteration:  1785
 C         2.557571         2.255442         0.829930
 C         2.290928         0.902001         1.220632
 C         2.586943         0.458770         2.619130
 C         2.015042        -0.950968         2.417506
 O         0.592737        -0.694098         2.125564
 C         1.144981        -0.136743         0.862025
 C         0.118230         0.203468        -0.207817
 C         2.315221        -1.046966         0.873614
 O         3.243464         0.006380         0.458505
 H         3.580765         2.425898         1.240020
 H         2.493632         2.372050        -0.268932
 H         1.876574         3.048753         1.322365
 H         3.679807         0.377602         2.710033
 H         2.022045         0.958231         3.435185
 H         2.212284        -1.703052         3.269992
 H         0.653129         0.689810        -1.056855
 H        -0.401987        -0.700403        -0.633020
 H        -0.719536         0.792567         0.296138
 H         2.441759        -2.040312         0.299876
