19
Iteration:  1541charge 0 multiplicity 1
 C         2.629749         2.389242         0.674813
 C         2.451293         0.870948         1.233073
 C         2.705659         0.341873         2.634533
 C         1.980111        -1.027527         2.392003
 O         0.632146        -0.594636         2.237255
 C         1.017048        -0.128732         0.922245
 C         0.059548         0.217402        -0.196659
 C         2.232353        -1.038701         0.830826
 O         3.161109        -0.050560         0.475555
 H         1.741808         3.071727         0.815391
 H         3.302957         2.936320         1.366384
 H         2.849477         2.468783        -0.353551
 H         3.782203         0.230612         2.763513
 H         2.265840         0.924736         3.423658
 H         2.064633        -1.903957         3.006565
 H        -0.955455        -0.178246        -0.005881
 H         0.250844         1.258065        -0.480344
 H         0.308781        -0.558004        -0.885409
 H         2.350894        -1.982958         0.400714
