19
Iteration:  1184
 C         2.596791         2.216283         0.817265
 C         2.347897         0.784105         1.111170
 C         2.679552         0.443619         2.656687
 C         1.987166        -0.865522         2.520762
 O         0.619663        -0.599575         2.131281
 C         1.131871        -0.059508         0.814583
 C         0.017166         0.285269        -0.090331
 C         2.262785        -1.113829         0.879557
 O         3.221067        -0.125852         0.358296
 H         2.085346         2.931270         1.504414
 H         3.683311         2.285694         0.878802
 H         2.364206         2.552473        -0.211895
 H         3.673889         0.345883         2.691338
 H         2.298634         1.101462         3.521555
 H         2.162906        -1.664779         3.358941
 H        -0.406134        -0.578455        -0.595836
 H        -0.776438         0.896235         0.359854
 H         0.337929         1.019142        -0.766732
 H         2.410711        -2.133732         0.246114
