19
Iteration:  4385charge 0 multiplicity 1
 C         1.364446         2.383464         1.805211
 C         1.878332         1.045634         1.626559
 C         1.727651         0.191410         2.849640
 C         2.073028        -1.156249         2.189830
 O         0.921435        -1.228908         1.227739
 C         1.537799        -0.223131         0.446859
 C         1.047340        -0.205007        -1.076487
 C         3.004521        -0.561408         0.942752
 O         3.353145         0.782293         1.191728
 H         0.317625         2.083842         2.147039
 H         2.043020         2.883850         2.475010
 H         1.331933         3.016291         0.938216
 H         2.454784         0.401249         3.684833
 H         0.760326         0.141505         3.324953
 H         2.154422        -2.100967         2.704201
 H         1.830829        -0.243540        -1.798498
 H         0.269703        -0.898134        -1.394076
 H         0.530500         0.755331        -1.367187
 H         3.903163        -1.139556         0.495185
