19
Iteration:   611
 C         2.507404         2.285777         0.838867
 C         2.511943         0.874144         1.181218
 C         2.719672         0.391729         2.633358
 C         1.970790        -0.923079         2.384044
 O         0.631200        -0.500927         2.193299
 C         1.092455        -0.091398         0.924714
 C         0.015939         0.232134        -0.172825
 C         2.228307        -1.099738         0.845324
 O         3.272953        -0.225195         0.381177
 H         1.478908         2.824537         0.947362
 H         3.225676         2.892816         1.391714
 H         2.635906         2.540817        -0.211098
 H         3.815769         0.532565         2.947698
 H         2.083514         0.928870         3.383114
 H         1.912742        -1.717689         3.007489
 H        -0.925145        -0.247817        -0.018496
 H        -0.174440         1.412995        -0.148989
 H         0.391238        -0.091334        -1.147011
 H         2.106027        -2.061092         0.380768
