19
Iteration:  2231charge 0 multiplicity 1
 C         2.171653         2.391614         0.953286
 C         2.250894         0.974406         1.267156
 C         2.371415         0.352439         2.818187
 C         1.999976        -1.055828         2.409688
 O         0.609489        -0.894860         1.874022
 C         1.225761        -0.207844         0.799498
 C         0.355861         0.152475        -0.299967
 C         2.537796        -0.990900         0.769126
 O         3.349812         0.248178         0.632822
 H         3.079580         2.602464         0.445550
 H         1.364171         2.632707         0.255450
 H         2.203104         3.116838         1.796279
 H         3.488134         0.436922         3.079089
 H         1.793804         0.803205         3.521435
 H         2.124729        -1.980154         2.992221
 H         0.369993         1.208922        -0.367463
 H         0.841662        -0.276768        -1.205944
 H        -0.631840        -0.256239        -0.059989
 H         2.628155        -1.900208         0.169098
