19
Iteration:  4999
 C         1.415429         2.488625         1.720212
 C         1.778391         0.988581         1.575379
 C         1.758838         0.013410         2.898065
 C         2.192175        -1.189915         2.084852
 O         1.093165        -1.525026         1.245030
 C         1.523137        -0.200927         0.517255
 C         1.059384        -0.046391        -0.869117
 C         2.934379        -0.479188         0.831154
 O         3.119098         0.962938         1.184374
 H         0.618017         2.663687         2.466225
 H         2.376545         2.969104         2.010090
 H         1.106404         3.056403         0.742200
 H         2.436832         0.424861         3.671563
 H         0.836687        -0.356440         3.352327
 H         2.579301        -2.086291         2.577070
 H         0.141117        -0.598816        -0.921300
 H         0.811542         1.000842        -1.063855
 H         1.727438        -0.470282        -1.652993
 H         3.610614        -1.055695         0.187134
