19
Iteration:  2086
 C         2.388647         2.367892         0.906232
 C         2.356681         0.902782         1.345367
 C         2.424541         0.416580         2.752711
 C         2.042060        -0.963696         2.393947
 O         0.662407        -0.917584         2.007075
 C         1.125462        -0.195132         0.806005
 C         0.197159         0.242838        -0.321974
 C         2.450262        -0.983835         0.839824
 O         3.274802         0.122954         0.496208
 H         1.321277         2.783776         1.080092
 H         3.129861         3.070173         1.351118
 H         2.425403         2.512686        -0.198735
 H         3.379633         0.429950         3.159619
 H         1.663875         0.773647         3.574437
 H         2.223029        -1.881904         3.015822
 H         0.532473        -0.263020        -1.245391
 H        -0.850849         0.008785        -0.008712
 H         0.350596         1.287845        -0.501374
 H         2.585381        -2.024253         0.394148
