19
Iteration:  1539
 C         2.624242         2.362798         0.685840
 C         2.443934         0.869599         1.239625
 C         2.703742         0.335675         2.639805
 C         1.998857        -1.017166         2.367284
 O         0.634591        -0.570921         2.225181
 C         1.021782        -0.132794         0.924214
 C         0.053493         0.216077        -0.191230
 C         2.227866        -1.047557         0.838549
 O         3.152227        -0.040319         0.481773
 H         1.742594         3.060136         0.864277
 H         3.352124         2.899925         1.412097
 H         2.839549         2.463398        -0.406242
 H         3.859818         0.258129         2.809384
 H         2.263171         0.944898         3.353649
 H         2.099492        -1.918518         3.055284
 H        -0.979317        -0.194127        -0.025071
 H         0.233577         1.225661        -0.522633
 H         0.328029        -0.571678        -0.955243
 H         2.347113        -1.988435         0.400593
