19
Iteration:  3006charge 0 multiplicity 1
 C         1.618666         2.401175         1.362350
 C         1.985820         1.023190         1.513840
 C         1.992438         0.214898         2.888552
 C         2.083441        -1.143349         2.264171
 O         0.797408        -1.262773         1.421309
 C         1.412831        -0.251465         0.585391
 C         0.873178         0.065376        -0.809669
 C         2.838667        -0.731172         0.952156
 O         3.299906         0.644706         1.029908
 H         2.057740         3.135619         2.099846
 H         1.778619         2.660970         0.316945
 H         0.556184         2.390231         1.672452
 H         2.957271         0.446162         3.468023
 H         1.093715         0.368204         3.498991
 H         2.144446        -1.960528         2.973881
 H         1.349319        -0.503574        -1.618170
 H        -0.229105         0.047221        -0.826679
 H         1.133138         1.148799        -0.968460
 H         3.520134        -1.350287         0.417413
