19
Iteration:  2904charge 0 multiplicity 1
 C         1.782358         2.525634         1.336782
 C         1.999682         1.055111         1.513174
 C         1.889962         0.222030         2.888436
 C         2.101022        -1.155839         2.220957
 O         0.754269        -1.219950         1.514518
 C         1.453881        -0.322320         0.577897
 C         0.695341         0.021175        -0.725901
 C         2.861250        -0.729957         0.879138
 O         3.397593         0.581347         1.010083
 H         0.731032         2.573381         1.373149
 H         2.233481         3.225286         2.066169
 H         2.182215         2.715704         0.384259
 H         2.607146         0.704618         3.478809
 H         0.883545         0.122668         3.378053
 H         2.369181        -2.038252         2.835747
 H         0.344206         1.063134        -0.690233
 H         1.297440        -0.059915        -1.651327
 H        -0.262771        -0.560679        -0.719857
 H         3.366833        -1.480193         0.204752
