19
Iteration:  1301
 C         2.468061         2.199364         0.730697
 C         2.437573         0.874188         1.115997
 C         2.633032         0.469677         2.608775
 C         2.075866        -0.927594         2.419266
 O         0.603305        -0.649054         2.116291
 C         1.083750        -0.110428         0.935452
 C         0.093471         0.391332        -0.052826
 C         2.236608        -1.041803         0.860480
 O         3.251374        -0.220872         0.429948
 H         1.495898         2.643063         1.045234
 H         3.367868         2.669048         1.248140
 H         2.595832         2.422549        -0.294238
 H         3.703935         0.592222         2.920778
 H         2.076359         0.929977         3.537028
 H         2.300322        -1.809853         3.141687
 H        -0.885764        -0.129729         0.235092
 H         0.036271         1.507645        -0.081700
 H         0.502751         0.264790        -1.037971
 H         2.358333        -1.998843         0.467613
