19
Iteration:   454
 C         2.637480         2.291419         0.758972
 C         2.408908         0.834190         1.152580
 C         2.737676         0.401979         2.705305
 C         1.996723        -0.982153         2.416520
 O         0.609282        -0.497932         2.136651
 C         1.112114        -0.049168         0.913211
 C         0.015712         0.232608        -0.153663
 C         2.217083        -1.133177         0.864866
 O         3.202843        -0.124073         0.403201
 H         1.776415         2.778254         1.154375
 H         3.492393         2.758154         1.268369
 H         2.561165         2.183047        -0.324192
 H         3.817998         0.465202         2.865788
 H         2.042763         1.005548         3.363973
 H         2.000881        -1.811378         3.219255
 H        -0.497667        -0.754139        -0.452521
 H        -0.686163         0.865696         0.376756
 H         0.413761         0.824348        -1.022118
 H         2.145865        -2.072502         0.357300
