19
Iteration:  1043
 C         2.533586         2.382415         0.779110
 C         2.417798         0.868090         1.257976
 C         2.762030         0.241052         2.628169
 C         1.950550        -0.971327         2.382329
 O         0.592089        -0.428453         2.160781
 C         1.114394        -0.025024         0.900574
 C         0.036202         0.150280        -0.171683
 C         2.228371        -1.091337         0.841429
 O         3.276829        -0.105926         0.432469
 H         2.047449         3.075341         1.521765
 H         3.531440         2.587209         0.488115
 H         1.886014         2.375546        -0.123320
 H         3.779005        -0.072088         2.663698
 H         2.382746         0.837431         3.648664
 H         2.025324        -1.804587         3.192814
 H        -0.773169        -0.408159         0.365464
 H        -0.316568         1.199753        -0.425439
 H         0.284995        -0.292931        -1.142816
 H         2.304901        -2.151100         0.245776
