19
Iteration:  4107charge 0 multiplicity 1
 C         1.513144         2.402483         1.499407
 C         1.833035         0.940974         1.575144
 C         1.769853         0.159348         2.913780
 C         2.069698        -1.195884         2.214035
 O         0.822267        -1.298392         1.309834
 C         1.482557        -0.204896         0.526272
 C         1.180740         0.099088        -0.905904
 C         2.878390        -0.658166         0.972634
 O         3.284603         0.728627         1.128982
 H         0.455873         2.541062         1.282285
 H         1.912383         2.907691         2.425560
 H         2.159339         2.713280         0.640551
 H         2.543424         0.464092         3.588873
 H         0.716553         0.028355         3.368759
 H         2.237234        -2.189067         2.729954
 H         1.709840        -0.511378        -1.635006
 H         0.075692         0.059064        -1.192808
 H         1.522171         1.190976        -1.080953
 H         3.802261        -1.162473         0.644175
