19
Iteration:  4202
 C         1.558519         2.532521         1.592499
 C         1.895520         1.026702         1.566390
 C         1.674057         0.115846         2.869226
 C         2.034226        -1.169697         2.143740
 O         0.945332        -1.370443         1.232426
 C         1.525012        -0.242407         0.471612
 C         1.074836        -0.068641        -0.969950
 C         2.869788        -0.571740         0.943259
 O         3.258305         0.732910         1.318386
 H         0.772783         2.971102         2.248522
 H         2.551564         2.833866         2.038120
 H         1.608689         2.874899         0.592302
 H         2.486434         0.513672         3.519569
 H         0.653879         0.193511         3.326415
 H         2.291710        -1.895484         2.851802
 H         0.224498        -0.741842        -1.080640
 H         0.757993         0.965789        -1.135768
 H         1.829850        -0.163946        -1.830072
 H         3.558835        -1.383225         0.591523
