19
Iteration:  1984charge 0 multiplicity 1
 C         2.495737         2.399489         0.950339
 C         2.269041         0.879381         1.278029
 C         2.553031         0.478144         2.697927
 C         2.052474        -1.059989         2.392122
 O         0.582242        -0.794364         2.080627
 C         1.139250        -0.140527         0.821365
 C         0.165920         0.095145        -0.381447
 C         2.366258        -1.026807         0.881371
 O         3.245585         0.129516         0.484445
 H         1.742111         3.078256         0.464859
 H         2.639899         3.076664         1.858257
 H         3.376812         2.382397         0.273652
 H         3.598603         0.500995         3.091972
 H         1.895291         0.777287         3.454856
 H         2.151457        -1.816825         3.139455
 H         0.071605         1.154624        -0.411538
 H         0.748006        -0.150574        -1.233456
 H        -0.781357        -0.483090        -0.385565
 H         2.376509        -1.944645         0.369682
