19
Iteration:  2697
 C         1.754924         2.380313         1.283976
 C         2.150156         0.969657         1.430696
 C         2.118866         0.336744         2.883889
 C         2.035187        -1.109369         2.265846
 O         0.702297        -1.060645         1.596270
 C         1.399363        -0.272900         0.632768
 C         0.643349         0.139021        -0.587284
 C         2.738318        -0.866343         0.880228
 O         3.384760         0.438249         0.832723
 H         1.576585         2.832712         2.235722
 H         2.559446         3.012536         0.782329
 H         0.904526         2.463514         0.551070
 H         3.114976         0.611814         3.315352
 H         1.348449         0.721487         3.528461
 H         2.238929        -1.970312         2.924016
 H         0.730803         1.192990        -0.890173
 H         0.847217        -0.501274        -1.436607
 H        -0.361539        -0.109229        -0.375372
 H         3.146373        -1.784453         0.355078
