19
Iteration:   586charge 0 multiplicity 1
 C         2.479884         2.254622         0.948655
 C         2.376946         0.816860         1.071381
 C         2.718714         0.359306         2.505530
 C         1.988653        -0.855676         2.496057
 O         0.611488        -0.442863         2.128038
 C         1.136621        -0.158701         0.879078
 C         0.170476         0.290967        -0.162798
 C         2.269636        -1.175508         0.869304
 O         3.163334        -0.162661         0.406674
 H         1.545926         2.819718         1.302830
 H         3.379376         2.642096         1.444277
 H         2.478753         2.723689        -0.066173
 H         3.813336         0.253425         2.425688
 H         2.535660         1.048576         3.498318
 H         1.911080        -1.552891         3.380298
 H        -0.772041        -0.325917         0.175487
 H        -0.226180         1.444884        -0.124186
 H         0.383039        -0.142849        -1.146416
 H         2.429081        -2.169541         0.601223
