19
Iteration:  3626
 C         1.274890         2.350162         1.404610
 C         1.885305         0.952029         1.620243
 C         1.783877         0.135403         2.931660
 C         2.075160        -1.271913         2.136982
 O         0.866165        -1.247129         1.260745
 C         1.563899        -0.230076         0.490940
 C         1.210572         0.155596        -0.885362
 C         2.928762        -0.625265         0.931764
 O         3.325499         0.766200         1.301061
 H         0.210836         2.257179         1.290268
 H         1.293941         2.887990         2.320270
 H         1.646195         2.894127         0.526939
 H         2.550639         0.235994         3.754542
 H         0.803501         0.034362         3.254253
 H         2.189230        -2.066190         2.917748
 H         0.937017        -0.862498        -1.351388
 H         0.314089         0.784339        -0.911082
 H         2.072568         0.492266        -1.465033
 H         3.829773        -1.108412         0.443192
