19
Iteration:  3072
 C         1.580761         2.541009         1.429910
 C         1.962929         0.975751         1.500603
 C         1.821570         0.194511         2.820664
 C         2.054010        -1.154504         2.194772
 O         0.881262        -1.344572         1.376787
 C         1.518288        -0.282782         0.526175
 C         0.777523         0.019163        -0.776441
 C         2.953308        -0.626522         0.971662
 O         3.360634         0.663597         1.120946
 H         2.481584         2.982471         0.941462
 H         0.656313         2.832806         0.923871
 H         1.725145         3.029791         2.447859
 H         2.620355         0.519042         3.648456
 H         0.867343        -0.045371         3.274708
 H         2.246510        -1.889879         2.966071
 H        -0.299838        -0.419421        -0.748982
 H         0.635755         1.116721        -0.832354
 H         1.248994        -0.415279        -1.709460
 H         3.512659        -1.377795         0.450083
