19
Iteration:  1638charge 0 multiplicity 1
 C         2.567857         2.256583         0.779729
 C         2.469559         0.897861         1.220645
 C         2.724676         0.390405         2.669771
 C         2.006537        -0.951314         2.478027
 O         0.577228        -0.600493         2.148118
 C         1.071433        -0.125102         0.925731
 C         0.073822         0.223763        -0.184067
 C         2.209482        -1.057321         0.785817
 O         3.213404        -0.054353         0.391806
 H         1.575238         2.838376         0.855831
 H         3.390399         2.860804         1.377144
 H         2.847340         2.222279        -0.285144
 H         3.851277         0.237908         2.962940
 H         2.176438         0.983871         3.417355
 H         2.121097        -1.736840         3.211898
 H        -0.929544         0.482484         0.346098
 H         0.299006         1.092208        -0.851941
 H        -0.174367        -0.740554        -0.691697
 H         2.279480        -1.943833         0.250514
