19
Iteration:   223
 C         2.521057         2.252232         0.694635
 C         2.452600         0.876010         1.207869
 C         2.760220         0.347594         2.650315
 C         2.019182        -0.972160         2.415729
 O         0.522692        -0.549470         2.206975
 C         1.085397        -0.045597         0.960565
 C         0.029250         0.327387        -0.112240
 C         2.244553        -1.092372         0.787927
 O         3.279815        -0.148833         0.410547
 H         1.677470         2.777867         1.167907
 H         3.376199         2.806515         1.148401
 H         2.461685         2.285543        -0.401094
 H         3.826075         0.191964         2.803742
 H         2.319388         0.967293         3.376605
 H         2.162236        -1.736362         3.163684
 H        -0.821116        -0.296818        -0.010396
 H        -0.261870         1.279014        -0.140434
 H         0.424523         0.132058        -1.166063
 H         2.215610        -2.114327         0.263241
