19
Iteration:  1640charge 0 multiplicity 1
 C         2.571562         2.268664         0.785804
 C         2.445096         0.889383         1.219472
 C         2.723235         0.372005         2.681371
 C         2.019245        -0.958956         2.477987
 O         0.570582        -0.596473         2.172355
 C         1.052996        -0.113494         0.916680
 C         0.065347         0.211493        -0.190306
 C         2.232152        -1.046399         0.796812
 O         3.225768        -0.057507         0.372326
 H         1.587847         2.877719         0.858507
 H         3.431146         2.848423         1.277867
 H         2.867391         2.232488        -0.268507
 H         3.772756         0.249693         2.930522
 H         2.120118         1.002894         3.412494
 H         2.089748        -1.737352         3.159527
 H        -0.873547         0.574480         0.347897
 H         0.328086         1.088695        -0.876745
 H        -0.109936        -0.734066        -0.714906
 H         2.295606        -1.974892         0.245857
