19
Iteration:  2455
 C         2.101787         2.534033         1.252920
 C         2.114378         1.031505         1.376763
 C         2.209509         0.329754         2.755976
 C         2.068896        -1.103337         2.273844
 O         0.679468        -0.986123         1.790372
 C         1.286647        -0.213140         0.660209
 C         0.416765        -0.033872        -0.508012
 C         2.624800        -0.910212         0.822713
 O         3.365735         0.331363         0.737824
 H         3.018888         2.872659         1.800486
 H         2.245914         2.825543         0.224285
 H         1.316692         3.195495         1.650538
 H         3.132236         0.580944         3.289789
 H         1.330257         0.423775         3.445313
 H         2.214661        -1.876074         3.041901
 H         0.456822         1.074588        -0.809306
 H         0.799323        -0.602118        -1.440881
 H        -0.556676        -0.430368        -0.178962
 H         3.019107        -1.767414         0.247426
