19
Iteration:   434
 C         2.581362         2.267904         0.701195
 C         2.388905         0.900393         1.272345
 C         2.804009         0.305423         2.631953
 C         1.976043        -0.914238         2.430656
 O         0.579403        -0.560841         2.223953
 C         1.004751        -0.109602         0.938930
 C         0.091061         0.262658        -0.273076
 C         2.198596        -1.033265         0.834028
 O         3.176529        -0.096146         0.459490
 H         1.687955         2.997512         0.954144
 H         3.409167         2.769139         1.289724
 H         2.779703         1.943796        -0.382195
 H         3.830057        -0.067580         2.412804
 H         2.789161         1.018508         3.569298
 H         2.243906        -1.805695         3.077857
 H        -0.492280        -0.682321        -0.285050
 H        -0.490346         1.186821        -0.047847
 H         0.805947         0.401067        -1.016525
 H         2.360951        -1.959616         0.406430
