19
Iteration:   345charge 0 multiplicity 1
 C         2.578327         2.292281         0.650291
 C         2.427080         0.918738         1.251244
 C         2.711265         0.393276         2.677107
 C         1.944192        -0.981117         2.428776
 O         0.580915        -0.562307         2.056957
 C         1.121928        -0.105574         0.874055
 C        -0.014376         0.279927        -0.035268
 C         2.266812        -1.092758         0.838822
 O         3.283505        -0.182328         0.481979
 H         2.166521         3.211863         1.314809
 H         3.701173         2.594177         0.529387
 H         2.173468         2.413696        -0.403611
 H         3.818294         0.327011         2.890510
 H         2.287149         0.951151         3.542309
 H         2.022696        -1.790686         3.211013
 H        -0.764716        -0.537951        -0.248598
 H        -0.596597         1.106189         0.338607
 H         0.266081         0.680523        -1.050737
 H         2.241275        -2.066929         0.373293
