19
Iteration:  1804
 C         2.540613         2.355531         0.857431
 C         2.364147         0.818169         1.188432
 C         2.605601         0.447925         2.720024
 C         2.067025        -0.951454         2.443872
 O         0.658152        -0.623190         2.121440
 C         1.068483        -0.084580         0.820559
 C        -0.001569         0.181360        -0.296904
 C         2.330867        -1.079955         0.829399
 O         3.271641        -0.067290         0.503076
 H         3.597254         2.722565         0.908913
 H         1.971255         2.695471        -0.004177
 H         2.148745         2.853088         1.747922
 H         3.617335         0.555501         3.008455
 H         1.780946         0.912768         3.389547
 H         2.125127        -1.903587         2.928826
 H         0.543209         0.043230        -1.218850
 H        -0.790495        -0.610421        -0.364213
 H        -0.566694         1.033936        -0.121288
 H         2.566658        -2.061309         0.319725
