19
Iteration:  3251
 C         1.487487         2.443345         1.550926
 C         1.810608         1.001367         1.511607
 C         1.690734         0.172625         2.794267
 C         2.051572        -1.175331         2.158704
 O         0.969465        -1.346847         1.207130
 C         1.591121        -0.182198         0.492376
 C         0.892271        -0.104398        -0.851651
 C         3.016463        -0.586952         0.966542
 O         3.405633         0.799850         1.355306
 H         1.518952         2.809596         2.585523
 H         2.077985         2.937030         0.771182
 H         0.480544         2.649282         1.252398
 H         2.371217         0.654159         3.429770
 H         0.660292        -0.008682         3.304063
 H         2.083113        -2.160222         2.659597
 H         1.287005        -0.897153        -1.486832
 H        -0.204671        -0.272500        -0.665973
 H         0.946543         0.801581        -1.478434
 H         3.886321        -1.136892         0.494524
