19
Iteration:  3423charge 0 multiplicity 1
 C         1.525759         2.457123         1.521416
 C         1.824358         0.995669         1.629724
 C         1.520319         0.123363         2.885194
 C         2.142122        -1.165811         2.084382
 O         0.994893        -1.413688         1.179301
 C         1.586550        -0.225644         0.526297
 C         1.110964        -0.053077        -0.920203
 C         2.953677        -0.483624         0.994166
 O         3.221270         0.782281         1.339270
 H         0.816769         2.735545         0.700978
 H         1.114645         2.968547         2.458890
 H         2.521950         2.858462         1.226446
 H         2.087620         0.153218         3.809614
 H         0.486548        -0.204215         3.234479
 H         2.523988        -2.033882         2.612235
 H         0.650672        -0.814467        -1.548315
 H         0.444185         0.847413        -0.924019
 H         2.069181         0.329830        -1.363262
 H         3.443023        -1.072198         0.184855
