19
Iteration:  4598charge 0 multiplicity 1
 C         1.179586         2.322172         1.506617
 C         1.855681         0.991041         1.583821
 C         1.780389         0.069457         2.834802
 C         2.157043        -1.204906         2.150670
 O         1.016271        -1.342772         1.241502
 C         1.610460        -0.188924         0.462728
 C         1.003223         0.127434        -0.876523
 C         2.940927        -0.577658         0.951264
 O         3.393521         0.773527         1.313312
 H         0.175600         2.089614         1.970547
 H         1.678800         3.189458         1.993905
 H         0.768367         2.736688         0.501064
 H         2.583460         0.540175         3.471883
 H         0.835838         0.134204         3.374942
 H         2.479773        -2.107533         2.769432
 H         1.023089         1.232300        -0.887047
 H         1.509708        -0.301440        -1.722552
 H        -0.019776        -0.220362        -0.806235
 H         3.675992        -1.208135         0.432779
