19
Iteration:  3886charge 0 multiplicity 1
 C         1.684258         2.506867         1.660359
 C         1.757924         1.041481         1.587592
 C         1.563971         0.142445         2.896505
 C         2.039976        -1.126161         2.152819
 O         0.986656        -1.476406         1.242754
 C         1.554344        -0.218107         0.386504
 C         1.019530        -0.054217        -0.950016
 C         2.948078        -0.560496         0.977521
 O         3.284949         0.764234         1.208529
 H         0.593277         2.635389         1.911878
 H         2.145408         2.841884         2.610370
 H         1.936274         2.997507         0.696378
 H         2.356933         0.578311         3.667097
 H         0.586830         0.147160         3.323925
 H         2.302560        -2.012347         2.705589
 H         1.184544        -0.970473        -1.606573
 H         0.013525         0.307657        -0.870786
 H         1.659068         0.776213        -1.299637
 H         3.640090        -1.249756         0.437222
