19
Iteration:  4921
 C         1.110105         2.300715         1.401371
 C         1.862637         0.911455         1.624274
 C         1.882301         0.058873         2.924415
 C         2.225960        -1.221844         2.087532
 O         1.051044        -1.429951         1.242005
 C         1.575362        -0.250267         0.535138
 C         0.913078         0.214274        -0.798916
 C         2.982676        -0.487802         0.859153
 O         3.322534         0.866798         1.310356
 H         0.095838         2.101729         1.080375
 H         0.945816         2.788134         2.418709
 H         1.675933         3.012558         0.743020
 H         2.717665         0.363491         3.602605
 H         0.971574        -0.069119         3.480954
 H         2.743834        -2.079484         2.637171
 H        -0.060812         0.683063        -0.523673
 H         1.459720         0.960046        -1.319290
 H         0.761981        -0.610830        -1.463633
 H         3.678527        -1.003913         0.248025
