19
Iteration:  1081charge 0 multiplicity 1
 C         2.581529         2.274942         0.864808
 C         2.391668         0.872692         1.169651
 C         2.647425         0.446768         2.524918
 C         2.085112        -0.935208         2.416465
 O         0.595944        -0.589009         2.206585
 C         1.087151        -0.047346         0.912245
 C         0.102998         0.278915        -0.152979
 C         2.176952        -1.156696         0.872141
 O         3.202147        -0.166617         0.359318
 H         1.858153         2.897937         1.383038
 H         3.533859         2.758720         1.368589
 H         2.775973         2.581030        -0.193897
 H         3.758884         0.434869         2.789300
 H         2.177422         0.965222         3.248958
 H         2.300592        -1.661281         3.143152
 H        -0.749715        -0.437833        -0.096895
 H        -0.392810         1.240489        -0.041862
 H         0.504835         0.041419        -1.169515
 H         2.152895        -2.106152         0.564892
