19
Iteration:  4451
 C         1.357718         2.314510         1.328369
 C         1.857059         0.870978         1.616554
 C         1.715115         0.096028         2.942249
 C         2.198231        -1.212557         2.130178
 O         1.013397        -1.414131         1.237634
 C         1.497104        -0.198336         0.531983
 C         0.971002         0.227678        -0.856802
 C         3.028605        -0.545394         0.975752
 O         3.275832         0.793317         1.285815
 H         0.224127         2.392934         1.461393
 H         1.725448         3.124665         1.977301
 H         1.589938         2.750396         0.379920
 H         2.304309         0.409312         3.812981
 H         0.715615        -0.038300         3.438245
 H         2.545782        -1.950833         2.815559
 H         0.679953        -0.587096        -1.505409
 H         0.105835         0.870702        -0.567084
 H         1.817278         0.916213        -1.204161
 H         3.754211        -1.154755         0.333621
