19
Iteration:  4181
 C         1.560629         2.428795         1.500148
 C         1.892724         0.935184         1.514573
 C         1.645678         0.146136         2.856657
 C         1.973565        -1.161970         2.165691
 O         0.912964        -1.268283         1.136779
 C         1.561846        -0.234717         0.509126
 C         0.916936        -0.004569        -0.864410
 C         3.073196        -0.609111         1.054884
 O         3.389219         0.731605         1.342826
 H         0.787503         2.465428         2.278467
 H         2.387636         3.035699         1.909984
 H         1.148741         2.737065         0.587853
 H         2.176251         0.789558         3.552741
 H         0.531910         0.159642         3.081529
 H         2.059345        -2.092038         2.654904
 H         0.306494        -0.909280        -0.954894
 H         0.366205         0.935230        -1.045785
 H         1.621685         0.130903        -1.775508
 H         3.874186        -1.221067         0.534095
