19
Iteration:  2859charge 0 multiplicity 1
 C         1.622316         2.489562         1.275242
 C         2.015841         0.974518         1.480436
 C         2.072258         0.234793         2.846690
 C         2.066825        -1.144592         2.265546
 O         0.727724        -1.157127         1.542221
 C         1.432938        -0.275164         0.629170
 C         0.762333         0.098645        -0.725500
 C         2.767788        -0.783509         0.874874
 O         3.424733         0.527198         0.995283
 H         1.008778         2.657143         0.468314
 H         1.186411         2.930528         2.161875
 H         2.583404         2.970404         1.173711
 H         3.014721         0.387440         3.376130
 H         1.225189         0.406783         3.446184
 H         2.368302        -1.947722         2.956391
 H        -0.322450         0.042983        -0.412783
 H         1.036415         1.114569        -1.061970
 H         0.770527        -0.580052        -1.535405
 H         3.386326        -1.596826         0.406869
