19
Iteration:  1164charge 0 multiplicity 1
 C         2.579438         2.322627         0.696420
 C         2.479042         0.867918         1.193445
 C         2.742796         0.383933         2.580861
 C         1.981409        -0.952898         2.379875
 O         0.569729        -0.551305         2.135043
 C         1.068316        -0.105113         0.882754
 C        -0.036409         0.306881        -0.067174
 C         2.296792        -1.105475         0.878970
 O         3.291064        -0.184364         0.514908
 H         1.663340         2.806313         1.038646
 H         3.424202         2.860414         0.938042
 H         2.294313         2.271711        -0.355756
 H         3.784050         0.233945         2.847030
 H         2.124096         0.990661         3.342049
 H         2.043038        -1.870826         3.064200
 H        -0.450766        -0.488795        -0.635136
 H        -0.850438         0.760698         0.524894
 H         0.092608         1.197657        -0.681540
 H         2.340990        -2.171149         0.319161
