19
Iteration:  1654
 C         2.622146         2.360403         0.759968
 C         2.300944         0.866099         1.210465
 C         2.613234         0.342437         2.668228
 C         2.007055        -1.022237         2.355037
 O         0.621223        -0.566134         2.272260
 C         1.105781        -0.039415         0.915572
 C         0.064777         0.199785        -0.194608
 C         2.331165        -1.057840         0.876506
 O         3.211296        -0.086172         0.358879
 H         1.873239         3.059352         1.115566
 H         3.502067         2.661951         1.246500
 H         2.526930         2.347430        -0.339641
 H         3.632870         0.453062         2.798140
 H         2.146267         0.866397         3.541344
 H         2.209125        -1.936057         2.995805
 H        -0.867558         0.687847         0.006391
 H         0.728757         0.730535        -0.903817
 H        -0.406848        -0.649807        -0.725109
 H         2.359208        -2.135405         0.416664
