19
Iteration:  3734
 C         1.588283         2.592298         1.719052
 C         1.908737         1.031298         1.613953
 C         1.619946         0.096008         2.858739
 C         1.966437        -1.185879         2.079865
 O         0.985492        -1.335907         1.126261
 C         1.498313        -0.201636         0.439141
 C         0.970161        -0.238374        -0.989670
 C         2.996062        -0.521350         0.919184
 O         3.296054         0.786910         1.397736
 H         0.599989         2.782758         2.145419
 H         2.453778         3.117329         2.089290
 H         1.578785         3.021150         0.656528
 H         2.202660         0.360079         3.808262
 H         0.661942         0.009518         3.235547
 H         2.419108        -1.946915         2.770614
 H         1.283193        -1.258745        -1.405016
 H        -0.064527        -0.057158        -1.234056
 H         1.467213         0.529544        -1.561001
 H         3.898596        -1.196166         0.761944
