19
Iteration:  3968
 C         1.331822         2.261998         1.420177
 C         1.917294         0.953091         1.491328
 C         1.774803         0.120919         2.865665
 C         2.017611        -1.194895         2.199906
 O         0.841468        -1.218828         1.268750
 C         1.583156        -0.274280         0.484397
 C         1.096798         0.194993        -0.828714
 C         2.955102        -0.646561         1.020756
 O         3.390132         0.735419         1.299408
 H         0.365755         2.255132         1.901576
 H         2.056087         3.034766         1.736478
 H         1.130815         2.699447         0.399054
 H         2.647905         0.249402         3.482058
 H         0.863063         0.521808         3.348080
 H         2.101690        -2.281194         2.559011
 H         1.154747        -0.602654        -1.552149
 H         0.015473         0.562747        -0.845711
 H         1.700968         0.985252        -1.176363
 H         3.724071        -1.232402         0.556592
