19
Iteration:  1750
 C         2.494871         2.296359         0.687834
 C         2.448753         0.879431         1.255835
 C         2.616825         0.372406         2.692033
 C         2.039875        -1.007025         2.467558
 O         0.620092        -0.720640         2.167866
 C         1.109257        -0.031755         0.837636
 C         0.042254         0.281252        -0.248238
 C         2.274790        -1.050509         0.893144
 O         3.276659        -0.038711         0.460041
 H         3.014492         3.045494         1.407107
 H         3.085253         2.423605        -0.249751
 H         1.417496         2.651555         0.627898
 H         3.576405         0.380622         3.147506
 H         1.955534         0.852216         3.545887
 H         2.236483        -1.879186         3.118763
 H         0.183916         1.316669        -0.707254
 H         0.117590        -0.535371        -1.052173
 H        -0.947334         0.434771         0.184607
 H         2.264806        -1.989391         0.244492
