19
Iteration:   477charge 0 multiplicity 1
 C         2.647883         2.331342         0.775217
 C         2.458729         0.847557         1.096022
 C         2.573504         0.477512         2.564528
 C         2.000561        -0.903832         2.371870
 O         0.541613        -0.561846         2.173761
 C         1.159402        -0.087082         0.872457
 C        -0.008748         0.267823         0.000641
 C         2.267672        -1.099391         0.796552
 O         3.317357        -0.267123         0.446251
 H         2.091380         2.839756         1.614097
 H         3.663589         2.488853         1.186427
 H         2.260240         2.437312        -0.273895
 H         3.594305         0.467461         2.947375
 H         1.609280         0.912608         3.112405
 H         2.224593        -1.543285         3.314375
 H        -0.453183        -0.642293        -0.553344
 H        -0.783419         0.735625         0.706318
 H         0.193837         1.035709        -0.763141
 H         2.241264        -2.043071         0.394872
