19
Iteration:  4336charge 0 multiplicity 1
 C         1.503169         2.452221         1.494650
 C         1.820138         0.966978         1.559503
 C         1.738572         0.095152         2.944350
 C         2.088044        -1.178528         2.150088
 O         1.017436        -1.413488         1.190049
 C         1.494563        -0.256636         0.501521
 C         0.973289         0.059922        -0.890727
 C         2.942920        -0.534448         0.921277
 O         3.267677         0.801141         1.359166
 H         0.459870         2.658756         1.489629
 H         2.161836         3.037452         2.183987
 H         1.897227         2.702731         0.469565
 H         2.324030         0.394533         3.822026
 H         0.664359         0.128358         3.364310
 H         2.498993        -2.114993         2.694966
 H         1.506767         0.926277        -1.420574
 H         1.233249        -0.772035        -1.643802
 H        -0.103689         0.184150        -1.033109
 H         3.649480        -1.163121         0.458840
