19
Iteration:  1110charge 0 multiplicity 1
 C         2.616880         2.314797         0.673897
 C         2.417091         0.870062         1.180371
 C         2.683205         0.406466         2.624159
 C         2.024701        -0.935779         2.481359
 O         0.605445        -0.652048         2.197180
 C         1.034632        -0.214066         0.910661
 C         0.087634         0.361749        -0.095380
 C         2.218335        -1.124541         0.818059
 O         3.181798        -0.092817         0.406214
 H         1.671975         2.877850         0.835802
 H         3.316675         2.863988         1.278804
 H         3.078492         2.430726        -0.339756
 H         3.772206         0.181893         2.776436
 H         2.291943         1.087985         3.523631
 H         2.154673        -1.769690         3.286685
 H        -0.575188        -0.314745        -0.612894
 H        -0.623822         1.102773         0.367646
 H         0.593977         0.963254        -0.920847
 H         2.296426        -2.220517         0.373420
