19
Iteration:   276
 C         2.599060         2.244996         0.850285
 C         2.476176         0.854610         1.149048
 C         2.773980         0.396821         2.566155
 C         1.913931        -0.879587         2.456066
 O         0.574962        -0.538242         2.191666
 C         1.043802        -0.125784         0.904365
 C         0.023164         0.233663        -0.167334
 C         2.254764        -1.074683         0.953748
 O         3.215165        -0.140378         0.321379
 H         1.967292         2.838295         1.505015
 H         3.680295         2.596356         1.089999
 H         2.394482         2.401442        -0.212949
 H         3.785269         0.097519         2.690970
 H         2.569300         1.193678         3.248134
 H         2.027428        -1.687338         3.149983
 H        -0.417224        -0.566858        -0.712852
 H        -0.835837         0.793026         0.194868
 H         0.408390         0.987607        -0.909381
 H         2.323605        -2.160301         0.538804
