19
Iteration:  2137charge 0 multiplicity 1
 C         2.336014         2.461980         1.049476
 C         2.359883         0.917773         1.344695
 C         2.539103         0.420184         2.716031
 C         2.061716        -1.030833         2.375279
 O         0.641277        -0.763924         1.958441
 C         1.067831        -0.143730         0.748884
 C         0.031517         0.025914        -0.464070
 C         2.513579        -1.006972         0.801931
 O         3.329388         0.101508         0.683201
 H         2.246997         3.107012         1.969897
 H         3.319923         2.617961         0.483935
 H         1.590408         2.910657         0.415573
 H         3.610282         0.511795         3.067491
 H         1.745108         0.840343         3.371415
 H         2.204897        -1.923942         3.019569
 H        -0.432384        -0.950715        -0.721681
 H        -0.765343         0.742097        -0.271496
 H         0.706943         0.294300        -1.353702
 H         2.898530        -1.845165         0.229867
