19
Iteration:  2211
 C         2.214813         2.395413         0.931350
 C         2.256696         0.959763         1.403007
 C         2.468031         0.410551         2.741873
 C         2.054160        -1.072503         2.323211
 O         0.647929        -0.951276         1.948381
 C         1.096962        -0.138240         0.785988
 C         0.338044         0.215030        -0.438286
 C         2.496603        -0.966236         0.866638
 O         3.303605         0.153448         0.661435
 H         3.205155         2.803262         0.793966
 H         1.633673         2.593096         0.003449
 H         1.729396         2.977533         1.727972
 H         3.567233         0.479825         3.095874
 H         1.758022         0.772433         3.443565
 H         2.314712        -1.876791         3.042151
 H        -0.310858         1.096197        -0.264204
 H         0.982415         0.338603        -1.353855
 H        -0.342894        -0.724946        -0.623729
 H         2.705497        -1.905561         0.355686
