19
Iteration:   451
 C         2.623267         2.268875         0.758730
 C         2.411166         0.843459         1.193572
 C         2.766037         0.398103         2.709651
 C         2.018127        -0.966215         2.425836
 O         0.592986        -0.501858         2.139673
 C         1.097492        -0.060042         0.890684
 C         0.024176         0.225838        -0.159060
 C         2.217784        -1.109531         0.862221
 O         3.181440        -0.119276         0.410267
 H         1.768125         2.814437         1.028889
 H         3.491920         2.716090         1.213064
 H         2.621379         2.248992        -0.316359
 H         3.854076         0.393835         2.849557
 H         2.175760         0.885392         3.409661
 H         2.008453        -1.751291         3.200201
 H        -0.525631        -0.673355        -0.512629
 H        -0.687756         0.898728         0.283457
 H         0.416296         0.781368        -1.121980
 H         2.157697        -2.142864         0.328894
