19
Iteration:   811
 C         2.583436         2.227789         0.709818
 C         2.368579         0.851564         1.162953
 C         2.636835         0.398949         2.581447
 C         1.981438        -0.940421         2.399519
 O         0.618957        -0.572522         2.091378
 C         1.162124        -0.097527         0.829860
 C        -0.032250         0.344917         0.011366
 C         2.300941        -1.103654         0.859753
 O         3.256323        -0.149254         0.521746
 H         1.774005         2.721700         1.106637
 H         3.440448         2.893548         1.002598
 H         2.616691         2.401316        -0.369303
 H         3.782010         0.284932         2.602599
 H         2.269010         1.042591         3.313833
 H         2.055112        -1.638544         3.312531
 H        -0.984939        -0.175309         0.443285
 H        -0.120057         1.395617         0.009833
 H         0.138270         0.083076        -1.094404
 H         2.579065        -2.206812         0.544559
