19
Iteration:   317
 C         2.695426         2.173814         0.645201
 C         2.398097         0.881478         1.238093
 C         2.573778         0.442690         2.644931
 C         2.018072        -1.006016         2.335216
 O         0.637845        -0.593584         2.279997
 C         1.066216        -0.023846         0.964473
 C         0.086399         0.250765        -0.143181
 C         2.200977        -1.019547         0.832462
 O         3.192988        -0.105425         0.406726
 H         2.501954         2.966921         1.328856
 H         3.715159         2.411247         0.699238
 H         2.237127         2.192753        -0.329412
 H         3.603913         0.488615         2.962140
 H         1.748527         0.855260         3.351808
 H         2.291614        -1.842854         3.007770
 H        -0.115707        -0.692805        -0.673440
 H        -0.895485         0.864179         0.220968
 H         0.592497         0.986069        -0.737468
 H         2.124329        -1.999816         0.320567
