19
Iteration:  3584
 C         1.455806         2.519969         1.660649
 C         1.891960         1.011028         1.563226
 C         1.620037         0.125361         2.787608
 C         2.036797        -1.144179         2.117831
 O         0.934577        -1.351149         1.140970
 C         1.624585        -0.192970         0.462364
 C         1.050664        -0.169262        -0.966814
 C         3.039656        -0.552518         1.031985
 O         3.286600         0.782470         1.377380
 H         0.503271         2.597170         2.163778
 H         2.163191         2.823392         2.469507
 H         1.612402         3.117411         0.750682
 H         2.186487         0.521295         3.683642
 H         0.570546        -0.018157         3.026353
 H         2.209676        -2.124528         2.569610
 H         0.693766        -1.127921        -1.433682
 H         0.048203         0.275666        -0.859561
 H         1.546148         0.451524        -1.737677
 H         3.880898        -1.140706         0.526885
