19
Iteration:   652charge 0 multiplicity 1
 C         2.676460         2.221233         0.603685
 C         2.282989         0.898591         1.262799
 C         2.663363         0.401431         2.671876
 C         1.961161        -0.987783         2.405269
 O         0.623676        -0.664423         2.142359
 C         1.049167        -0.093592         0.900019
 C         0.075896         0.325242        -0.066545
 C         2.271868        -1.025392         0.855090
 O         3.219685        -0.046783         0.416136
 H         1.969807         3.069805         0.903238
 H         3.705859         2.220882         0.868214
 H         2.680607         2.004478        -0.485275
 H         3.753826         0.277464         2.877042
 H         2.249550         0.943345         3.680821
 H         2.033669        -1.747947         3.178030
 H        -0.531956        -0.621447        -0.199645
 H        -0.654898         1.170396         0.404876
 H         0.640153         0.608974        -0.931349
 H         2.450321        -1.984100         0.520142
