19
Iteration:  1393charge 0 multiplicity 1
 C         2.618318         2.230535         0.861589
 C         2.360684         0.838051         1.144983
 C         2.734355         0.456623         2.568280
 C         1.976088        -0.879189         2.399797
 O         0.576229        -0.477761         2.151112
 C         1.099042        -0.158529         0.817298
 C        -0.007751         0.210190        -0.124521
 C         2.269071        -1.126507         0.913368
 O         3.247489        -0.119884         0.398938
 H         1.960109         2.811365         1.543779
 H         3.662972         2.342709         1.109567
 H         2.637693         2.559871        -0.253720
 H         3.755015         0.490800         2.721283
 H         2.208414         0.877001         3.420426
 H         1.987914        -1.615815         3.122491
 H        -0.160576        -0.584434        -0.734395
 H        -0.838442         0.273711         0.536452
 H         0.166245         1.217878        -0.429359
 H         2.408322        -2.225310         0.526113
