19
Iteration:   289charge 0 multiplicity 1
 C         2.707377         2.337059         0.745317
 C         2.387160         0.863303         1.137028
 C         2.754230         0.421947         2.609858
 C         2.009891        -0.906271         2.527305
 O         0.567138        -0.645888         2.191214
 C         1.068145        -0.113879         0.893308
 C         0.060325         0.277487        -0.199787
 C         2.208942        -1.125695         0.907520
 O         3.086535        -0.132918         0.390444
 H         2.153259         3.008952         1.510518
 H         3.808680         2.624157         0.973749
 H         2.406290         2.621660        -0.296426
 H         3.844859         0.209089         2.539479
 H         2.458612         0.981007         3.426278
 H         2.146410        -1.600843         3.318150
 H        -0.187479        -0.591633        -0.787641
 H        -0.719152         0.661114         0.283705
 H         0.573962         1.091401        -0.837671
 H         2.258553        -2.159463         0.457055
