19
Iteration:  4930
 C         1.131616         2.310663         1.424815
 C         1.798991         0.955729         1.620408
 C         1.893556         0.055409         2.876562
 C         2.287789        -1.245350         2.082238
 O         1.006602        -1.417287         1.183516
 C         1.564128        -0.184505         0.515227
 C         0.842499         0.162932        -0.745929
 C         3.042317        -0.583059         0.905629
 O         3.394663         0.919641         1.326090
 H         0.096931         2.178443         1.087601
 H         1.111583         2.896312         2.389016
 H         1.500574         3.022426         0.706074
 H         2.541267         0.407575         3.688673
 H         0.908151        -0.195030         3.281781
 H         2.460051        -2.196832         2.731142
 H        -0.264317         0.382325        -0.658281
 H         1.333704         0.990065        -1.215670
 H         0.894860        -0.694782        -1.354422
 H         3.863197        -1.046113         0.379073
