19
Iteration:  3458charge 0 multiplicity 1
 C         1.278191         2.344343         1.530183
 C         1.852098         0.974274         1.509461
 C         1.703548         0.174264         2.893722
 C         2.029123        -1.192163         2.141528
 O         0.935278        -1.274343         1.162393
 C         1.598152        -0.247262         0.480294
 C         1.207856         0.089067        -0.890994
 C         2.979058        -0.666761         1.072409
 O         3.325385         0.728073         1.297311
 H         0.319930         2.342681         0.972891
 H         1.181300         2.689096         2.571674
 H         1.949763         3.061494         1.072700
 H         2.555910         0.345246         3.472182
 H         0.706201         0.381096         3.453480
 H         2.190687        -1.978718         2.865894
 H         1.275986        -0.639227        -1.667294
 H         0.103609         0.417781        -0.763306
 H         1.633472         1.030138        -1.336719
 H         3.722722        -1.180362         0.498588
