19
Iteration:  2484charge 0 multiplicity 1
 C         1.993009         2.368595         1.327952
 C         2.259681         1.007688         1.356063
 C         2.278875         0.399737         2.801930
 C         1.969518        -1.023851         2.317508
 O         0.658131        -1.060907         1.765891
 C         1.289046        -0.143435         0.615772
 C         0.403795        -0.018689        -0.611765
 C         2.576722        -0.895677         0.827833
 O         3.457218         0.357000         0.762086
 H         2.907082         3.064632         1.096569
 H         1.349760         2.591686         0.426810
 H         1.647269         2.797141         2.259287
 H         3.236423         0.637557         3.218789
 H         1.590777         0.785683         3.626222
 H         2.271825        -1.819579         2.979657
 H         0.957148         0.502594        -1.361387
 H         0.087580        -0.911971        -1.084080
 H        -0.500647         0.482711        -0.176838
 H         2.937789        -1.763924         0.278560
