19
Iteration:   459
 C         2.643525         2.302246         0.767091
 C         2.425717         0.828436         1.113271
 C         2.651653         0.408912         2.665597
 C         1.966443        -1.002308         2.423233
 O         0.632998        -0.497405         2.151344
 C         1.129881        -0.036275         0.917162
 C         0.012487         0.234589        -0.121468
 C         2.219276        -1.139044         0.869306
 O         3.238879        -0.145673         0.394294
 H         1.717897         2.823019         1.307106
 H         3.534819         2.776806         1.213924
 H         2.572208         2.297997        -0.351168
 H         3.720763         0.537013         2.930269
 H         2.017347         1.080608         3.262458
 H         2.006661        -1.795095         3.090942
 H        -0.366747        -0.705939        -0.347661
 H        -0.747761         0.815187         0.488053
 H         0.410477         0.854299        -0.903645
 H         2.167414        -2.117374         0.306078
