19
Iteration:   504charge 0 multiplicity 1
 C         2.673415         2.277697         0.665121
 C         2.411065         0.862019         1.164047
 C         2.654058         0.441598         2.662200
 C         1.966258        -0.969052         2.450350
 O         0.649775        -0.645608         2.102423
 C         1.100094        -0.136460         0.835434
 C        -0.113086         0.355037        -0.099657
 C         2.306696        -1.083116         0.909087
 O         3.205276        -0.103651         0.501162
 H         2.414517         2.984173         1.481181
 H         3.769105         2.263945         0.612110
 H         2.215422         2.337194        -0.297644
 H         3.757692         0.262826         2.735683
 H         2.220077         1.026476         3.381182
 H         2.050520        -1.722063         3.193389
 H        -0.492964        -0.472623        -0.621142
 H        -0.875008         0.854446         0.438184
 H         0.348959         1.094738        -0.806109
 H         2.493419        -2.178479         0.527051
