19
Iteration:  4711charge 0 multiplicity 1
 C         1.154060         2.362898         1.715287
 C         1.856233         0.985082         1.596208
 C         1.898104         0.050576         2.810727
 C         2.198718        -1.176837         2.084472
 O         0.974640        -1.246937         1.275380
 C         1.512990        -0.173183         0.415238
 C         1.045766        -0.127515        -0.928722
 C         2.991518        -0.519243         0.933225
 O         3.300007         0.855265         1.251496
 H        -0.011878         2.225453         1.547516
 H         1.207433         2.770470         2.779730
 H         1.632608         3.133783         1.104432
 H         2.674314         0.303646         3.509707
 H         0.952881         0.003201         3.389594
 H         2.305755        -2.144513         2.514367
 H         1.517144        -0.834653        -1.572653
 H        -0.045378        -0.279142        -0.991398
 H         1.308793         0.885787        -1.243992
 H         3.764328        -1.167188         0.349312
