19
Iteration:  1786
 C         2.555642         2.247397         0.838812
 C         2.293888         0.902781         1.207595
 C         2.583636         0.455975         2.629438
 C         2.018211        -0.955819         2.417814
 O         0.598120        -0.692460         2.126458
 C         1.136874        -0.132153         0.862268
 C         0.112882         0.198626        -0.220183
 C         2.317667        -1.046949         0.874465
 O         3.247080         0.009828         0.460700
 H         3.583064         2.399627         1.199606
 H         2.489662         2.384827        -0.256780
 H         1.872721         3.025803         1.335503
 H         3.705962         0.412887         2.722612
 H         2.048666         0.964795         3.414669
 H         2.207074        -1.689321         3.287941
 H         0.625413         0.709024        -1.077484
 H        -0.411163        -0.705174        -0.597772
 H        -0.723626         0.846272         0.279841
 H         2.418401        -2.027835         0.314973
