19
Iteration:  4590charge 0 multiplicity 1
 C         1.163229         2.372205         1.575718
 C         1.838752         0.937471         1.511621
 C         1.790889         0.123395         2.808461
 C         2.196560        -1.222376         2.111165
 O         0.999067        -1.317748         1.249883
 C         1.559561        -0.220419         0.496636
 C         1.080881         0.110659        -0.828841
 C         2.936984        -0.587145         0.972891
 O         3.344576         0.774223         1.264729
 H         0.258996         2.134672         2.233204
 H         1.657602         3.158007         2.112811
 H         1.059387         2.561823         0.502254
 H         2.542506         0.545480         3.524841
 H         0.851272         0.048117         3.339685
 H         2.400740        -1.997670         2.865741
 H         0.999442         1.146037        -0.957540
 H         1.719904        -0.122053        -1.675253
 H         0.032263        -0.255461        -1.049129
 H         3.767519        -1.246436         0.431857
