19
Iteration:  1139charge 0 multiplicity 1
 C         2.532040         2.222063         0.569899
 C         2.403960         0.850080         1.231789
 C         2.639830         0.374551         2.706751
 C         2.008114        -1.044151         2.376833
 O         0.672873        -0.539483         2.163649
 C         1.140573         0.015256         0.940519
 C         0.036076         0.354226        -0.038412
 C         2.220678        -1.073759         0.768522
 O         3.302075        -0.146636         0.486578
 H         1.536850         2.709865         0.630254
 H         3.286160         2.766289         1.182564
 H         2.736941         2.221639        -0.480783
 H         3.641301         0.350627         2.926714
 H         2.030330         0.891376         3.472855
 H         1.985102        -1.963937         3.031177
 H        -0.201936        -0.649852        -0.460086
 H        -0.873244         0.711902         0.437249
 H         0.040535         1.118204        -0.740477
 H         2.021801        -2.118413         0.269623
