19
Iteration:  1727
 C         2.435071         2.255048         0.762926
 C         2.329923         0.838209         1.235902
 C         2.630120         0.481255         2.637717
 C         2.061858        -1.037171         2.345517
 O         0.618432        -0.542001         2.094149
 C         1.092587        -0.124538         0.878365
 C         0.112272         0.255755        -0.099682
 C         2.280074        -1.073566         0.767179
 O         3.320268        -0.109065         0.556754
 H         2.726714         2.943083         1.652509
 H         3.328593         2.379289         0.079563
 H         1.487107         2.641471         0.357740
 H         3.701096         0.531803         2.846132
 H         2.105354         0.905197         3.589170
 H         2.002393        -1.795695         3.068107
 H         0.114967         1.335441        -0.443247
 H         0.260957        -0.393555        -1.024246
 H        -0.872824         0.144562         0.320830
 H         2.393952        -1.979667         0.145220
