19
Iteration:   973charge 0 multiplicity 1
 C         2.644335         2.278587         0.685645
 C         2.367798         0.870763         1.163333
 C         2.613899         0.483231         2.599949
 C         2.020009        -0.934629         2.452883
 O         0.594143        -0.691666         2.157903
 C         1.063805        -0.116424         0.923353
 C         0.049614         0.384864        -0.029141
 C         2.285075        -1.135996         0.823748
 O         3.216685        -0.154900         0.446102
 H         2.404133         2.947739         1.511462
 H         3.738336         2.268020         0.316404
 H         2.207345         2.354459        -0.335707
 H         3.757452         0.555476         2.826569
 H         2.007618         1.016822         3.316613
 H         2.146110        -1.680971         3.212533
 H        -0.437246        -0.463823        -0.569976
 H        -0.719217         1.023435         0.375909
 H         0.692258         1.028310        -0.678493
 H         2.258320        -2.039376         0.266432
