19
Iteration:  3714charge 0 multiplicity 1
 C         1.530905         2.433978         1.586057
 C         1.917331         1.012415         1.690368
 C         1.593544         0.126393         2.832681
 C         2.134467        -1.186006         2.119432
 O         0.898443        -1.266317         1.126354
 C         1.585332        -0.183677         0.421771
 C         0.983514        -0.199986        -0.970279
 C         2.913627        -0.574137         0.953545
 O         3.364727         0.817165         1.429892
 H         0.521155         2.575414         1.969121
 H         2.253306         2.976441         2.215916
 H         1.641156         2.843134         0.588815
 H         2.164191         0.378522         3.738851
 H         0.538249         0.105728         3.108664
 H         2.225628        -2.118497         2.734975
 H         1.200394        -1.147673        -1.538380
 H        -0.020500         0.143065        -0.737360
 H         1.165150         0.709085        -1.619179
 H         3.783622        -0.980120         0.373930
