19
Iteration:  4152charge 0 multiplicity 1
 C         1.427120         2.386404         1.317948
 C         1.926876         0.953085         1.619627
 C         1.696524         0.142404         2.853208
 C         1.995434        -1.149810         2.117174
 O         0.935311        -1.250221         1.174255
 C         1.603091        -0.234249         0.524443
 C         0.948210         0.166979        -0.809842
 C         3.000759        -0.679107         1.073086
 O         3.435737         0.645466         1.377225
 H         0.534980         2.451594         1.913426
 H         2.117737         3.201778         1.556988
 H         1.125787         2.398911         0.223290
 H         2.328078         0.607022         3.625357
 H         0.601821         0.126021         3.065313
 H         2.158548        -2.060229         2.778507
 H         0.649241        -0.730402        -1.361218
 H        -0.075913         0.628377        -0.582333
 H         1.519665         0.797712        -1.473176
 H         3.523403        -1.333313         0.425189
