19
Iteration:  3431
 C         1.494187         2.434009         1.522719
 C         1.816597         0.970103         1.605694
 C         1.544674         0.108580         2.892044
 C         2.109927        -1.227802         2.112294
 O         0.958268        -1.442248         1.226662
 C         1.478441        -0.248378         0.504601
 C         1.159372         0.047854        -0.947000
 C         2.987062        -0.515185         0.964500
 O         3.290147         0.838673         1.326775
 H         0.703278         2.601612         0.782244
 H         1.216595         2.895573         2.494480
 H         2.454522         2.967358         1.264608
 H         2.211378         0.418200         3.813075
 H         0.522490         0.116168         3.152591
 H         2.402741        -2.049929         2.784843
 H         0.844638        -0.904827        -1.478723
 H         0.367118         0.746602        -1.056279
 H         1.945119         0.469248        -1.536764
 H         3.854434        -0.994336         0.406321
