19
Iteration:  4759
 C         1.157971         2.348006         1.499509
 C         1.812554         0.937470         1.537649
 C         1.792763         0.006198         2.895020
 C         2.232772        -1.216656         2.081119
 O         1.033261        -1.420743         1.239723
 C         1.565970        -0.236405         0.488744
 C         1.029541         0.155043        -0.773403
 C         3.048949        -0.522789         0.968680
 O         3.253101         0.915107         1.226404
 H         0.196077         2.336003         2.013189
 H         1.803069         3.128047         2.050532
 H         1.051372         2.827281         0.496868
 H         2.575743         0.229079         3.673910
 H         0.886354        -0.204460         3.468672
 H         2.699721        -2.071758         2.670933
 H         0.244228        -0.646284        -1.092308
 H         0.368118         0.990863        -0.528323
 H         1.744467         0.313052        -1.606000
 H         3.751922        -1.019270         0.358781
