19
Iteration:  3625
 C         1.278014         2.345902         1.409402
 C         1.887679         0.962164         1.624607
 C         1.782519         0.136500         2.932837
 C         2.064848        -1.270811         2.134175
 O         0.871841        -1.246379         1.256479
 C         1.562218        -0.228537         0.499109
 C         1.205867         0.144348        -0.898104
 C         2.939222        -0.618483         0.925630
 O         3.318520         0.760094         1.304198
 H         0.208673         2.262172         1.303055
 H         1.319439         2.884292         2.326407
 H         1.646590         2.919481         0.530071
 H         2.559241         0.246295         3.750307
 H         0.809776         0.042731         3.266543
 H         2.185052        -2.070465         2.932322
 H         0.951171        -0.881182        -1.355174
 H         0.328516         0.792749        -0.882255
 H         2.047302         0.478806        -1.483294
 H         3.837703        -1.102053         0.447548
