19
Iteration:  4382charge 0 multiplicity 1
 C         1.382736         2.388787         1.776980
 C         1.894597         1.024715         1.643367
 C         1.724756         0.175886         2.839103
 C         2.076354        -1.143811         2.192680
 O         0.913503        -1.232661         1.230087
 C         1.538197        -0.244181         0.405274
 C         1.033248        -0.188954        -1.051786
 C         2.999141        -0.559559         0.953310
 O         3.353687         0.804838         1.190156
 H         0.423924         2.160116         2.201605
 H         1.985157         2.832181         2.562175
 H         1.279255         3.147658         0.976311
 H         2.345512         0.469252         3.716146
 H         0.793843         0.069311         3.313736
 H         2.059397        -2.178492         2.650336
 H         1.910572        -0.276077        -1.770443
 H         0.351678        -1.043581        -1.331664
 H         0.495824         0.744786        -1.312803
 H         3.878841        -1.063437         0.495045
