19
Iteration:  2490charge 0 multiplicity 1
 C         1.961442         2.405509         1.298287
 C         2.231248         0.974370         1.391917
 C         2.272296         0.361084         2.775195
 C         1.958517        -1.021098         2.329010
 O         0.664212        -1.029887         1.749793
 C         1.301814        -0.158852         0.647782
 C         0.457739        -0.004999        -0.587843
 C         2.591696        -0.903395         0.855948
 O         3.457786         0.380865         0.739187
 H         2.877442         2.777999         0.936483
 H         1.245694         2.578999         0.511013
 H         1.650837         2.815346         2.279526
 H         3.352623         0.475783         3.172311
 H         1.592630         0.706355         3.511098
 H         2.199892        -1.878306         2.997422
 H         0.876296         0.509449        -1.502705
 H        -0.090947        -0.992733        -0.823700
 H        -0.319175         0.715442        -0.290706
 H         2.945285        -1.715519         0.198112
