19
Iteration:  1612
 C         2.483603         2.345702         0.768481
 C         2.377586         0.900324         1.134934
 C         2.689294         0.377846         2.626290
 C         1.994499        -0.973382         2.402035
 O         0.596411        -0.586026         2.115959
 C         1.139643        -0.055559         0.886573
 C         0.008157         0.319626        -0.089535
 C         2.259275        -1.083624         0.895790
 O         3.350532        -0.224311         0.455295
 H         1.562955         2.813790         0.544952
 H         2.971222         2.932726         1.530364
 H         3.013335         2.342168        -0.214032
 H         3.810989         0.332023         2.731669
 H         2.236860         0.981354         3.425906
 H         2.103005        -1.879789         3.101497
 H        -0.922386         0.230377         0.475754
 H         0.080168         1.299934        -0.504045
 H        -0.198570        -0.498413        -0.811810
 H         2.338929        -2.125552         0.424184
