19
Iteration:  3672charge 0 multiplicity 1
 C         1.322783         2.335685         1.398833
 C         1.908182         0.962315         1.542849
 C         1.775216         0.154823         2.902090
 C         1.998945        -1.178603         2.253509
 O         0.906839        -1.387926         1.196562
 C         1.584914        -0.289946         0.516268
 C         1.112085         0.264884        -0.851645
 C         2.989499        -0.690126         0.986325
 O         3.317554         0.769739         1.292787
 H         0.237359         2.396820         1.265215
 H         1.413543         3.059896         2.237634
 H         1.737388         2.647800         0.489388
 H         2.554536         0.585429         3.500294
 H         0.703959         0.171831         3.297048
 H         2.315901        -2.093249         2.721686
 H         1.288539        -0.388182        -1.710972
 H         0.047464         0.555497        -0.633991
 H         1.810060         1.134694        -1.087871
 H         3.587030        -1.451984         0.452566
