19
Iteration:  4832
 C         1.258458         2.355839         1.677823
 C         1.818303         1.008709         1.615994
 C         1.768904        -0.006027         2.824767
 C         2.161197        -1.171795         2.035619
 O         1.075822        -1.292911         1.176096
 C         1.595592        -0.198409         0.436770
 C         0.895297        -0.190488        -0.895788
 C         3.092288        -0.420636         0.917509
 O         3.265428         0.925520         1.351325
 H         0.288369         2.291638         2.249843
 H         1.889146         3.052722         2.296424
 H         1.098434         2.973880         0.824350
 H         2.507542         0.383543         3.502441
 H         0.866328        -0.166008         3.441321
 H         2.527207        -2.131059         2.448318
 H        -0.195953        -0.096798        -0.781045
 H         1.181212         0.654841        -1.486619
 H         1.064726        -1.122119        -1.365893
 H         3.824346        -1.036279         0.412571
