19
Iteration:  2950
 C         1.692643         2.478847         1.395583
 C         2.031234         1.018626         1.532146
 C         1.945584         0.279822         2.958101
 C         2.028305        -1.161722         2.177758
 O         0.780966        -1.209692         1.407962
 C         1.420054        -0.242491         0.509396
 C         0.700656        -0.100344        -0.755077
 C         2.883276        -0.718005         0.868416
 O         3.408721         0.631388         1.087330
 H         1.369073         2.838023         2.419388
 H         2.607980         3.048845         1.187850
 H         1.062535         2.754445         0.563485
 H         2.844697         0.426173         3.525659
 H         0.971194         0.509186         3.547919
 H         2.160255        -2.134008         2.659851
 H         1.236594         0.463163        -1.472933
 H         0.445841        -1.097451        -1.186283
 H        -0.172853         0.582999        -0.436417
 H         3.600674        -1.354671         0.365818
