19
Iteration:  4369
 C         1.429828         2.446249         1.774486
 C         1.933407         1.001345         1.496497
 C         1.716881         0.094194         2.889161
 C         2.051489        -1.152644         2.090113
 O         0.903471        -1.274625         1.210616
 C         1.582529        -0.291040         0.442235
 C         1.040688        -0.165538        -0.936675
 C         2.956525        -0.538006         0.941305
 O         3.295423         0.861093         1.258026
 H         0.409597         2.499154         2.080933
 H         2.086276         2.958940         2.544978
 H         1.516226         3.076235         0.821997
 H         2.379444         0.510911         3.634229
 H         0.605930         0.116461         2.958519
 H         2.434825        -2.027356         2.721718
 H         1.920050        -0.024930        -1.668875
 H         0.565236        -1.189131        -1.025434
 H         0.285144         0.592672        -1.098060
 H         3.662751        -1.183109         0.498664
