19
Iteration:  1044
 C         2.533330         2.381216         0.778576
 C         2.421611         0.871337         1.266943
 C         2.757687         0.243845         2.631489
 C         1.947118        -0.974934         2.390128
 O         0.598936        -0.418049         2.158463
 C         1.107768        -0.025792         0.906161
 C         0.028492         0.146991        -0.172520
 C         2.232535        -1.100228         0.828748
 O         3.277229        -0.106895         0.422519
 H         2.023852         3.082603         1.513372
 H         3.565891         2.576768         0.536391
 H         1.857395         2.379726        -0.127076
 H         3.791126        -0.054378         2.686193
 H         2.371509         0.835314         3.632480
 H         2.014252        -1.839388         3.205324
 H        -0.750260        -0.405777         0.367789
 H        -0.305421         1.214839        -0.418585
 H         0.313610        -0.312419        -1.160419
 H         2.326630        -2.141053         0.255471
