19
Iteration:   694
 C         2.555958         2.345710         0.801382
 C         2.420914         0.854694         1.136481
 C         2.559106         0.466013         2.570370
 C         2.020144        -0.895438         2.400036
 O         0.632440        -0.562965         2.159941
 C         1.116803        -0.012288         0.888298
 C         0.023482         0.286492        -0.058276
 C         2.275440        -1.146037         0.852535
 O         3.307337        -0.328636         0.438930
 H         2.418890         2.868689         1.767428
 H         3.571379         2.532568         0.408925
 H         1.897137         2.676549        -0.022977
 H         3.563015         0.524362         2.836220
 H         1.901531         1.144420         3.247362
 H         2.273628        -1.781163         3.033314
 H        -0.256058        -0.535772        -0.754827
 H        -0.923831         0.630098         0.287511
 H         0.302676         1.078968        -0.676855
 H         2.126050        -2.233000         0.542044
