19
Iteration:    28charge 0 multiplicity 1
 C         2.537487         2.265559         0.646456
 C         2.573240         0.829051         1.198393
 C         2.642910         0.374812         2.652789
 C         1.974743        -1.034861         2.405668
 O         0.598259        -0.450122         2.145005
 C         1.130964         0.010649         0.872604
 C        -0.029916         0.313475         0.020733
 C         2.230092        -1.068812         0.821206
 O         3.321065        -0.242272         0.474101
 H         1.641319         2.838502         0.931743
 H         3.504377         2.767024         0.707513
 H         2.358632         2.236864        -0.457278
 H         3.746840         0.276660         2.914574
 H         2.003668         1.002946         3.285406
 H         2.085232        -1.904358         3.086392
 H        -0.400820        -0.665093        -0.457018
 H        -0.813660         0.579557         0.811074
 H        -0.139519         1.063200        -0.918177
 H         2.168289        -1.957949         0.120707
