19
Iteration:   416charge 0 multiplicity 1
 C         2.542706         2.314028         0.683460
 C         2.383224         0.877591         1.187229
 C         2.780711         0.328544         2.591580
 C         1.990441        -1.052555         2.449226
 O         0.561685        -0.589260         2.269641
 C         1.094822         0.011110         0.973665
 C         0.209493         0.239456        -0.203538
 C         2.163887        -1.082067         0.896124
 O         3.149091        -0.086580         0.398854
 H         1.655915         3.023532         0.988146
 H         3.334694         2.858510         1.203010
 H         2.799089         2.382497        -0.378428
 H         3.860574         0.320974         2.732830
 H         2.320048         0.788078         3.486614
 H         2.019935        -1.805296         3.161213
 H        -0.641521        -0.419151        -0.297023
 H        -0.081730         1.362964        -0.289447
 H         0.916506         0.090740        -1.079189
 H         2.020916        -1.987598         0.191084
