19
Iteration:   461
 C         2.631312         2.303849         0.775360
 C         2.441406         0.828961         1.107245
 C         2.604372         0.414185         2.637181
 C         1.956451        -0.998893         2.424920
 O         0.640190        -0.499402         2.164233
 C         1.134845        -0.032349         0.905200
 C         0.014650         0.241005        -0.083651
 C         2.222573        -1.132903         0.868200
 O         3.254660        -0.160953         0.391755
 H         1.796263         2.806672         1.283188
 H         3.554632         2.755740         1.139600
 H         2.601146         2.433911        -0.316492
 H         3.650283         0.542950         2.962104
 H         2.047001         1.061722         3.211995
 H         2.017074        -1.849243         3.085544
 H        -0.345404        -0.739814        -0.353776
 H        -0.749874         0.756666         0.483153
 H         0.425043         0.900046        -0.942855
 H         2.189094        -2.153184         0.276465
