19
Iteration:  2323charge 0 multiplicity 1
 C         2.251583         2.434399         1.082017
 C         2.160632         0.895994         1.420767
 C         2.371837         0.392976         2.852238
 C         2.035651        -1.041867         2.287589
 O         0.642326        -0.940495         1.919503
 C         1.196733        -0.154399         0.778732
 C         0.414088         0.025385        -0.543699
 C         2.534498        -0.872786         0.780256
 O         3.296059         0.247279         0.662475
 H         1.252499         2.729790         0.646499
 H         2.287520         3.027749         1.989117
 H         2.926105         2.722069         0.323679
 H         3.355625         0.627702         3.180612
 H         1.555532         0.612734         3.658702
 H         2.246360        -1.942934         2.835863
 H         0.617735        -0.772091        -1.334431
 H        -0.684689        -0.035145        -0.362133
 H         0.610933         1.097718        -0.921735
 H         2.810238        -1.696008         0.120845
