19
Iteration:  3892charge 0 multiplicity 1
 C         1.669413         2.500474         1.702503
 C         1.773860         1.000533         1.573082
 C         1.604670         0.123350         2.898182
 C         2.055518        -1.128073         2.166288
 O         0.963822        -1.427824         1.208137
 C         1.554079        -0.237449         0.447158
 C         1.046314        -0.096222        -0.974525
 C         2.932219        -0.516420         0.989188
 O         3.250552         0.775065         1.191671
 H         0.671589         2.843463         1.946070
 H         2.408095         2.817983         2.462426
 H         1.943522         3.063556         0.790777
 H         2.274852         0.703169         3.498161
 H         0.581407         0.056266         3.339136
 H         2.265138        -2.097410         2.711623
 H         1.132374        -0.915026        -1.713937
 H        -0.068944         0.178775        -1.022259
 H         1.654017         0.730075        -1.366348
 H         3.654740        -1.252163         0.667399
