19
Iteration:    97
 C         2.638178         2.188734         0.762149
 C         2.422086         0.830793         1.141213
 C         2.686454         0.485505         2.726128
 C         2.125823        -0.916663         2.443750
 O         0.628200        -0.559838         2.202093
 C         1.073927        -0.031458         0.997428
 C         0.107603         0.282430        -0.169020
 C         2.110778        -1.037446         0.826319
 O         3.117570        -0.219024         0.312506
 H         1.866384         2.796646         1.374574
 H         3.756636         2.317198         0.973547
 H         2.398874         2.536315        -0.340683
 H         3.859363         0.406545         3.012151
 H         2.035662         1.158511         3.358646
 H         2.274726        -1.814242         2.990422
 H         0.104155        -0.567494        -0.830453
 H        -1.009640         0.350540         0.198277
 H         0.422125         1.063944        -0.808250
 H         1.945858        -1.972931         0.443406
