19
Iteration:  2241charge 0 multiplicity 1
 C         2.185244         2.412846         0.951958
 C         2.265933         0.899640         1.402813
 C         2.342661         0.346211         2.789055
 C         1.976997        -1.025564         2.350417
 O         0.666048        -0.838422         1.889660
 C         1.231438        -0.239104         0.759070
 C         0.325463         0.126217        -0.343144
 C         2.564536        -0.940054         0.805553
 O         3.354530         0.219207         0.597484
 H         2.966339         2.619772         0.259997
 H         1.252804         2.756733         0.516527
 H         2.250883         3.003421         1.908297
 H         3.360961         0.274263         3.252329
 H         1.662354         0.764480         3.436760
 H         2.158615        -1.841849         3.053572
 H         0.326579         1.156308        -0.570016
 H         0.302149        -0.453382        -1.262479
 H        -0.656123        -0.020176         0.019073
 H         2.915504        -1.876853         0.339267
