19
Iteration:  3237charge 0 multiplicity 1
 C         1.486594         2.471263         1.460039
 C         1.903895         0.971880         1.557425
 C         1.769012         0.223003         2.850387
 C         2.083325        -1.227788         2.085665
 O         0.948285        -1.356570         1.155036
 C         1.529212        -0.268266         0.472354
 C         0.916204        -0.085047        -0.819147
 C         2.985617        -0.551323         1.041620
 O         3.265940         0.799310         1.358363
 H         1.349163         2.867002         2.473687
 H         2.401005         3.022967         1.187419
 H         0.551987         2.726042         0.899944
 H         2.592422         0.386133         3.676993
 H         0.782376         0.361317         3.300137
 H         2.422793        -2.009446         2.729518
 H         1.438183        -0.686629        -1.704675
 H        -0.088452        -0.558267        -0.755306
 H         0.922049         1.002597        -0.945374
 H         3.697357        -1.158687         0.477166
