19
Iteration:  2302
 C         2.243714         2.484642         1.112938
 C         2.281814         0.946375         1.349982
 C         2.322358         0.333133         2.835536
 C         2.053752        -1.082944         2.376511
 O         0.636130        -0.903305         1.824057
 C         1.244196        -0.204464         0.785756
 C         0.282433         0.039425        -0.504361
 C         2.516069        -0.988393         0.861740
 O         3.322208         0.330148         0.596291
 H         1.696767         2.844704         0.186932
 H         1.865023         3.080657         1.953581
 H         3.284667         2.744313         0.876901
 H         3.283336         0.420841         3.260086
 H         1.454833         0.904880         3.429187
 H         2.168446        -1.929154         3.024513
 H         0.791637        -0.487460        -1.394283
 H        -0.590504        -0.606093        -0.271484
 H         0.006067         1.148483        -0.615554
 H         2.947342        -1.844920         0.343760
