19
Iteration:   109
 C         2.632157         2.224851         0.778508
 C         2.424806         0.822535         1.211840
 C         2.752547         0.377615         2.598059
 C         2.042389        -0.953006         2.433138
 O         0.591353        -0.484702         2.268842
 C         1.043848         0.012081         0.912551
 C         0.046443         0.214423        -0.209413
 C         2.177337        -1.063349         0.838458
 O         3.185693        -0.177494         0.367220
 H         2.065974         2.890053         1.504555
 H         3.669103         2.698588         0.831745
 H         2.233509         2.312094        -0.283541
 H         3.861335         0.485009         2.814398
 H         2.205887         1.001307         3.385076
 H         2.201992        -1.762250         3.167421
 H        -0.042720        -0.701057        -0.773322
 H        -0.935350         0.472405         0.209507
 H         0.276183         1.028342        -0.799798
 H         2.161837        -2.014412         0.351629
