19
Iteration:  3671charge 0 multiplicity 1
 C         1.318336         2.334758         1.399899
 C         1.906902         0.955878         1.541268
 C         1.779351         0.151780         2.904553
 C         1.993597        -1.163035         2.260875
 O         0.908415        -1.391674         1.202338
 C         1.591052        -0.299722         0.513012
 C         1.113802         0.279874        -0.843881
 C         2.989364        -0.693833         0.977482
 O         3.311103         0.769417         1.292837
 H         0.241828         2.358599         1.234924
 H         1.401003         3.071904         2.205770
 H         1.743734         2.652351         0.479247
 H         2.554067         0.609367         3.537384
 H         0.746095         0.181953         3.271543
 H         2.291481        -2.133121         2.686786
 H         1.325496        -0.405427        -1.693367
 H         0.068510         0.603271        -0.655136
 H         1.812880         1.128096        -1.091643
 H         3.578773        -1.463275         0.403680
