19
Iteration:  1678charge 0 multiplicity 1
 C         2.594049         2.320063         0.829135
 C         2.354132         0.816130         1.202409
 C         2.696330         0.439882         2.626415
 C         2.085003        -0.926726         2.429926
 O         0.588225        -0.640382         2.132633
 C         1.091068        -0.113914         0.889421
 C         0.115176         0.165829        -0.173281
 C         2.197304        -1.041444         0.774703
 O         3.180656        -0.062094         0.481334
 H         2.232062         2.989050         1.538600
 H         3.637540         2.503090         0.813019
 H         2.038776         2.475867        -0.099516
 H         3.779776         0.560014         2.888828
 H         2.167793         1.062398         3.285702
 H         2.164754        -1.719088         3.269844
 H        -0.401690         1.085799         0.021203
 H         0.687574         0.225891        -1.051370
 H        -0.789662        -0.449372        -0.268407
 H         2.149153        -1.978140         0.174769
