19
Iteration:  1138
 C         2.530341         2.208555         0.574731
 C         2.393133         0.845289         1.234004
 C         2.641414         0.379240         2.704735
 C         2.007838        -1.043893         2.379138
 O         0.669348        -0.541643         2.160545
 C         1.135422         0.020651         0.946249
 C         0.042380         0.356428        -0.037534
 C         2.230616        -1.077909         0.776735
 O         3.296640        -0.142798         0.477046
 H         1.533713         2.698969         0.630436
 H         3.328426         2.808721         1.190871
 H         2.773981         2.205948        -0.484844
 H         3.683838         0.354153         2.958708
 H         2.048729         0.877071         3.428896
 H         1.983563        -1.942916         2.987087
 H        -0.216173        -0.659445        -0.459475
 H        -0.873133         0.719063         0.421838
 H         0.034392         1.130780        -0.757412
 H         2.050269        -2.063242         0.289550
