19
Iteration:  4351
 C         1.513110         2.470515         1.589835
 C         1.790188         0.989017         1.634353
 C         1.665747         0.129277         2.794649
 C         2.119845        -1.198846         2.130463
 O         0.992271        -1.373080         1.189585
 C         1.509789        -0.154180         0.492214
 C         1.010007        -0.100973        -0.911385
 C         2.956797        -0.537147         0.976534
 O         3.297447         0.785511         1.282652
 H         0.490015         2.728392         1.923702
 H         2.006547         2.830984         2.443896
 H         1.716198         3.025173         0.686178
 H         2.479564         0.506790         3.490900
 H         0.783910        -0.055951         3.324899
 H         2.203154        -2.143022         2.708360
 H         1.741824         0.474443        -1.485340
 H         0.939061        -1.137129        -1.230678
 H         0.052430         0.461737        -0.883371
 H         3.749260        -1.019221         0.319372
