19
Iteration:  1538charge 0 multiplicity 1
 C         2.620880         2.349778         0.694776
 C         2.437763         0.871770         1.241682
 C         2.705833         0.331803         2.641750
 C         2.009466        -1.011587         2.356761
 O         0.634584        -0.559361         2.218526
 C         1.024897        -0.132950         0.925510
 C         0.050580         0.212065        -0.188036
 C         2.225198        -1.051277         0.843457
 O         3.149429        -0.036550         0.483046
 H         1.745991         3.036775         0.887647
 H         3.374925         2.870737         1.414609
 H         2.840666         2.454381        -0.426206
 H         3.877042         0.274004         2.830341
 H         2.247490         0.967620         3.345328
 H         2.118918        -1.913221         3.073203
 H        -0.987008        -0.183938        -0.028374
 H         0.215459         1.214380        -0.550416
 H         0.341419        -0.563891        -0.996561
 H         2.347404        -2.017855         0.381160
