19
Iteration:   166
 C         2.604518         2.234512         0.750023
 C         2.489225         0.804943         1.144587
 C         2.643825         0.425963         2.621702
 C         2.015294        -0.958790         2.407415
 O         0.669891        -0.580231         2.222559
 C         1.064276        -0.061912         0.923563
 C         0.012173         0.329208        -0.104307
 C         2.153584        -1.085945         0.790034
 O         3.243625        -0.137222         0.429946
 H         1.991805         2.819571         1.459907
 H         3.705423         2.597582         0.703270
 H         2.130663         2.495419        -0.197873
 H         3.611361         0.459737         3.021608
 H         1.934102         1.181823         3.126496
 H         2.222413        -1.874877         3.084541
 H        -0.797856        -0.390702        -0.107189
 H        -0.371850         1.263813         0.089791
 H         0.598894         0.257581        -0.978305
 H         2.134657        -2.152247         0.303369
