19
Iteration:   479charge 0 multiplicity 1
 C         2.658013         2.325989         0.774613
 C         2.445639         0.852031         1.096919
 C         2.589329         0.486346         2.571770
 C         2.012223        -0.897495         2.372370
 O         0.531272        -0.574458         2.159919
 C         1.150233        -0.095642         0.873883
 C        -0.024661         0.272033        -0.019109
 C         2.269553        -1.106167         0.797019
 O         3.322138        -0.268926         0.456477
 H         2.074568         2.846247         1.685020
 H         3.695769         2.507519         1.124746
 H         2.253446         2.405037        -0.253366
 H         3.622411         0.518875         2.976755
 H         1.657395         0.934742         3.120857
 H         2.228486        -1.460991         3.258301
 H        -0.462670        -0.581555        -0.513063
 H        -0.769205         0.735336         0.748737
 H         0.184274         1.039364        -0.677987
 H         2.229889        -2.064825         0.389932
