19
Iteration:  1794
 C         2.546604         2.256763         0.871867
 C         2.317412         0.840191         1.144689
 C         2.596584         0.427349         2.685873
 C         2.046807        -0.968817         2.435682
 O         0.640395        -0.672314         2.126357
 C         1.057768        -0.088243         0.852020
 C         0.061208         0.183329        -0.279801
 C         2.343476        -1.046101         0.868093
 O         3.263457         0.012614         0.483986
 H         3.660247         2.422963         0.939583
 H         2.404572         2.520346        -0.195754
 H         1.878388         2.891545         1.537366
 H         3.607825         0.655951         2.883469
 H         2.082825         1.114056         3.472355
 H         2.133920        -1.737801         3.249350
 H         0.415658         0.684937        -1.185948
 H        -0.520992        -0.763470        -0.419037
 H        -0.515058         1.027966         0.004984
 H         2.320977        -2.080446         0.347471
