19
Iteration:  2235charge 0 multiplicity 1
 C         2.169234         2.395865         0.956470
 C         2.264320         0.956464         1.321928
 C         2.354928         0.333037         2.806804
 C         1.985529        -1.035977         2.397120
 O         0.639344        -0.863910         1.877136
 C         1.192067        -0.224600         0.765315
 C         0.373903         0.135847        -0.295828
 C         2.566115        -0.976964         0.769013
 O         3.354394         0.244785         0.617122
 H         3.078969         2.596563         0.316528
 H         1.303706         2.760277         0.324221
 H         2.211746         3.037756         1.816160
 H         3.424521         0.303245         3.110640
 H         1.654179         0.873596         3.565775
 H         2.166577        -1.942191         3.005251
 H         0.380257         1.270045        -0.393350
 H         0.631536        -0.395688        -1.248614
 H        -0.705465        -0.213914         0.031220
 H         2.655366        -1.949862         0.251841
