19
Iteration:  1106
 C         2.629929         2.350875         0.688434
 C         2.374752         0.873716         1.141094
 C         2.703494         0.426732         2.624013
 C         2.006869        -0.936676         2.495970
 O         0.626881        -0.670843         2.198407
 C         1.005323        -0.206629         0.922867
 C         0.101691         0.372249        -0.120977
 C         2.220886        -1.134769         0.833440
 O         3.186857        -0.126492         0.408171
 H         1.741688         2.933036         0.932506
 H         3.320111         2.929599         1.306502
 H         3.054904         2.531102        -0.262176
 H         3.714833         0.216864         2.795507
 H         2.368690         1.063735         3.436628
 H         2.127042        -1.765965         3.187195
 H        -0.655223        -0.321572        -0.583137
 H        -0.543833         1.041478         0.436982
 H         0.630196         0.774684        -0.928571
 H         2.269487        -2.162677         0.295686
