19
Iteration:  1177charge 0 multiplicity 1
 C         2.551471         2.226051         0.763929
 C         2.420344         0.824902         1.151628
 C         2.682948         0.445446         2.647838
 C         1.975945        -0.933805         2.472085
 O         0.599593        -0.585925         2.113385
 C         1.107257        -0.087484         0.853203
 C        -0.047364         0.346873        -0.087408
 C         2.274076        -1.123373         0.878584
 O         3.271161        -0.132913         0.394235
 H         2.023522         2.845688         1.447147
 H         3.607536         2.476758         0.914684
 H         2.513332         2.513206        -0.294899
 H         3.885958         0.343276         2.666484
 H         2.427036         1.117992         3.460969
 H         2.045572        -1.654198         3.249116
 H        -0.343709        -0.567535        -0.584095
 H        -0.901120         0.642942         0.548314
 H         0.386570         0.997662        -0.930060
 H         2.410785        -2.162813         0.578011
