19
Iteration:  3240charge 0 multiplicity 1
 C         1.470134         2.466378         1.466004
 C         1.880741         0.974422         1.558459
 C         1.769641         0.233941         2.834338
 C         2.059182        -1.230036         2.058765
 O         0.955325        -1.349041         1.157510
 C         1.536513        -0.268561         0.501550
 C         0.911593        -0.100125        -0.825496
 C         2.994427        -0.571585         1.039500
 O         3.303501         0.812526         1.367701
 H         1.511487         2.792453         2.518812
 H         2.362015         3.032095         1.186674
 H         0.563123         2.744389         0.990379
 H         2.516466         0.504323         3.535801
 H         0.706834         0.298554         3.300106
 H         2.373913        -2.025781         2.742400
 H         1.380472        -0.700192        -1.606068
 H        -0.128835        -0.511799        -0.713396
 H         0.915615         0.974937        -1.067273
 H         3.774999        -1.136262         0.445937
