19
Iteration:  2324
 C         2.244744         2.434416         1.084223
 C         2.159135         0.907811         1.422552
 C         2.370185         0.396797         2.845122
 C         2.038635        -1.048038         2.281211
 O         0.636103        -0.940839         1.920910
 C         1.196758        -0.161277         0.787022
 C         0.420835         0.029126        -0.543960
 C         2.529440        -0.881302         0.771237
 O         3.301730         0.246185         0.670597
 H         1.243745         2.738566         0.677131
 H         2.309320         3.042632         1.970932
 H         2.929323         2.728129         0.304833
 H         3.366636         0.637308         3.138937
 H         1.557154         0.644688         3.649417
 H         2.248421        -1.942880         2.830923
 H         0.617749        -0.786735        -1.317262
 H        -0.678183        -0.014134        -0.332838
 H         0.633703         1.068043        -0.914474
 H         2.821782        -1.695356         0.103185
