19
Iteration:   595charge 0 multiplicity 1
 C         2.472854         2.285011         0.919179
 C         2.383665         0.795140         1.095876
 C         2.727737         0.404664         2.580795
 C         1.999765        -0.931326         2.527181
 O         0.597063        -0.443226         2.142833
 C         1.149930        -0.072932         0.804230
 C         0.117759         0.271771        -0.148061
 C         2.254322        -1.161274         0.872411
 O         3.215384        -0.184454         0.363151
 H         1.571577         2.723005         1.319081
 H         3.223732         2.741052         1.616102
 H         2.650775         2.547995        -0.156507
 H         3.764580         0.180982         2.579276
 H         2.331346         1.186905         3.343111
 H         2.177552        -1.692190         3.443836
 H        -0.791860        -0.342664         0.227376
 H        -0.152064         1.343980        -0.232496
 H         0.225647        -0.044446        -1.220987
 H         2.295339        -2.256958         0.499457
