19
Iteration:  1174
 C         2.557783         2.242617         0.735444
 C         2.446002         0.846560         1.171584
 C         2.709810         0.432749         2.624482
 C         1.974695        -0.948116         2.436611
 O         0.589756        -0.576133         2.111404
 C         1.092789        -0.106683         0.880150
 C        -0.059168         0.364388        -0.094188
 C         2.284415        -1.113430         0.879961
 O         3.283831        -0.140644         0.420478
 H         1.944130         2.851646         1.416909
 H         3.522402         2.573688         0.992646
 H         2.450517         2.450566        -0.334449
 H         3.739987         0.335434         2.684021
 H         2.387928         1.158974         3.459066
 H         1.995969        -1.768174         3.265069
 H        -0.344093        -0.545776        -0.583482
 H        -0.877698         0.571916         0.582550
 H         0.302354         0.958154        -0.882676
 H         2.392721        -2.298210         0.616820
