19
Iteration:  2885charge 0 multiplicity 1
 C         1.725767         2.392298         1.331509
 C         2.068069         0.921261         1.452951
 C         1.965194         0.344933         2.872086
 C         2.011358        -1.107729         2.260440
 O         0.870205        -1.250465         1.470607
 C         1.357753        -0.242397         0.672405
 C         0.703219         0.119631        -0.690235
 C         2.823471        -0.751195         0.869650
 O         3.357983         0.549376         0.970718
 H         0.693499         2.618768         0.818730
 H         1.877135         2.793186         2.366717
 H         2.525183         2.912031         0.750183
 H         2.772202         0.569778         3.558612
 H         0.906112         0.534240         3.302553
 H         2.218820        -1.923391         2.953133
 H        -0.055228         0.846586        -0.605400
 H         1.527499         0.396294        -1.368317
 H         0.115407        -0.740687        -1.167598
 H         3.493319        -1.475674         0.439476
