19
Iteration:   518charge 0 multiplicity 1
 C         2.672369         2.231226         0.602562
 C         2.331926         0.881443         1.239946
 C         2.671376         0.346724         2.678149
 C         2.000044        -0.955085         2.436707
 O         0.534852        -0.618127         2.182242
 C         1.038243        -0.074175         0.911094
 C         0.068431         0.304524        -0.096974
 C         2.316187        -1.091405         0.841659
 O         3.243013        -0.039565         0.454547
 H         2.466497         3.103200         1.114375
 H         3.785268         2.332900         0.468192
 H         2.080872         2.385205        -0.316398
 H         3.761236         0.230049         2.764744
 H         2.088712         0.805026         3.505436
 H         2.121583        -1.844372         3.210061
 H        -0.522241        -0.542984        -0.624939
 H        -0.680697         0.850071         0.454170
 H         0.373919         0.976102        -0.994983
 H         2.459252        -2.053133         0.219669
