19
Iteration:  4849
 C         1.216613         2.257277         1.779199
 C         1.822006         0.940186         1.576074
 C         1.830224         0.135833         2.946223
 C         2.273428        -1.117918         2.119782
 O         1.011721        -1.378061         1.142054
 C         1.563893        -0.156544         0.454792
 C         0.961255        -0.117464        -0.998093
 C         2.934331        -0.454001         0.893250
 O         3.299513         0.913370         1.286360
 H         0.143384         2.249130         2.018644
 H         1.678718         2.754055         2.611243
 H         1.393439         2.816010         0.797905
 H         2.607813         0.492731         3.671338
 H         0.798705         0.103223         3.343832
 H         2.528320        -2.053508         2.587979
 H        -0.040963         0.329852        -0.941021
 H         1.553570         0.381071        -1.847947
 H         0.915864        -1.246507        -1.258525
 H         3.809405        -0.790058         0.240737
