19
Iteration:  4683charge 0 multiplicity 1
 C         1.353015         2.344585         1.664229
 C         1.833320         0.953622         1.597061
 C         1.758351         0.104378         2.884345
 C         2.156213        -1.136060         2.172283
 O         1.042665        -1.477597         1.206407
 C         1.542716        -0.212881         0.420549
 C         1.021433        -0.000911        -0.861774
 C         2.968956        -0.482907         0.896190
 O         3.240220         0.920890         1.178332
 H         0.341918         2.503352         1.492829
 H         1.259716         2.621970         2.719256
 H         1.982333         3.064496         1.152108
 H         2.470571         0.444687         3.670705
 H         0.722430         0.053990         3.282241
 H         2.442642        -2.095707         2.661681
 H         1.764326        -0.315008        -1.685855
 H         0.150323        -0.667154        -0.925457
 H         0.671599         1.032919        -0.927897
 H         3.648051        -1.129504         0.458109
