19
Iteration:  1316
 C         2.528977         2.329423         0.653632
 C         2.367801         0.834508         1.181594
 C         2.662170         0.366113         2.647954
 C         1.989184        -0.996257         2.437370
 O         0.620075        -0.622270         2.239576
 C         1.113330        -0.127212         0.886632
 C         0.090323         0.383926        -0.104249
 C         2.294392        -1.174017         0.878322
 O         3.226525        -0.067318         0.397294
 H         1.559488         2.898981         0.757644
 H         3.276403         2.924916         1.187452
 H         2.850349         2.236646        -0.455855
 H         3.705374         0.339027         2.839637
 H         2.119076         1.082151         3.301110
 H         2.127027        -1.778900         3.194692
 H        -0.815581        -0.180218        -0.083102
 H        -0.172252         1.400726         0.228421
 H         0.533037         0.366407        -1.120150
 H         2.284801        -2.222425         0.329148
