19
Iteration:  1121charge 0 multiplicity 1
 C         2.578665         2.202393         0.678857
 C         2.451936         0.849232         1.233075
 C         2.688157         0.370059         2.639117
 C         2.024592        -0.967745         2.405123
 O         0.567003        -0.602773         2.176107
 C         1.092275        -0.089214         0.908308
 C         0.033688         0.361040        -0.066847
 C         2.278929        -1.066153         0.851207
 O         3.179951        -0.081780         0.393560
 H         1.630526         2.722209         0.495548
 H         3.296971         2.775479         1.231272
 H         2.848766         1.936301        -0.372761
 H         3.794344         0.423899         2.852029
 H         2.075579         0.973697         3.462526
 H         2.209321        -1.750599         3.245730
 H        -0.358664        -0.467875        -0.613491
 H        -0.723485         0.975831         0.506046
 H         0.636779         1.035555        -0.757044
 H         2.423099        -2.151022         0.390529
