19
Iteration:  1997
 C         2.464035         2.462950         0.959746
 C         2.152738         0.995156         1.223266
 C         2.537394         0.381071         2.689878
 C         2.079134        -0.974527         2.372778
 O         0.616664        -0.777566         2.096177
 C         1.100665        -0.180010         0.830671
 C         0.294559         0.132762        -0.360600
 C         2.350322        -1.083358         0.826808
 O         3.233111         0.034456         0.563389
 H         1.626627         2.973333         0.418419
 H         2.818807         2.778884         1.941501
 H         3.379666         2.510741         0.409068
 H         3.541254         0.662635         2.709812
 H         1.958853         0.873655         3.512855
 H         2.360652        -1.837204         2.973113
 H         0.115357         1.144233        -0.696310
 H         0.535342        -0.443999        -1.202339
 H        -0.710551        -0.184637        -0.031366
 H         2.593649        -1.961600         0.245240
