19
Iteration:  1740charge 0 multiplicity 1
 C         2.452695         2.190591         0.780612
 C         2.395209         0.850795         1.264552
 C         2.627696         0.395985         2.687922
 C         2.010787        -0.927013         2.345496
 O         0.638002        -0.669752         2.190173
 C         1.124919        -0.005332         0.868673
 C         0.053727         0.300030        -0.222348
 C         2.296405        -1.022552         0.791551
 O         3.309139        -0.088339         0.523339
 H         2.845511         2.986274         1.504709
 H         3.067648         2.121951        -0.154427
 H         1.435324         2.508174         0.326166
 H         3.663393         0.479994         2.925637
 H         1.907460         1.061186         3.331269
 H         2.341055        -1.826167         2.945008
 H         0.159044         1.331328        -0.707335
 H         0.108511        -0.534441        -1.026400
 H        -0.983665         0.156060         0.238624
 H         2.337291        -2.107979         0.351308
