19
Iteration:  4432charge 0 multiplicity 1
 C         1.315739         2.361171         1.465405
 C         1.872965         0.882913         1.649576
 C         1.797205         0.024803         2.881799
 C         2.115588        -1.190935         2.165550
 O         0.956672        -1.332317         1.271369
 C         1.507865        -0.240073         0.481715
 C         1.084723         0.118165        -0.810196
 C         2.968135        -0.546027         0.950888
 O         3.273703         0.849556         1.214616
 H         0.212171         2.448913         1.536993
 H         1.925813         3.175245         1.986261
 H         1.597155         2.708171         0.431166
 H         2.472214         0.439074         3.625229
 H         0.736876         0.111852         3.339154
 H         2.327830        -2.196747         2.524895
 H         1.529069        -0.633350        -1.498857
 H        -0.000485         0.158652        -0.980749
 H         1.479366         1.066972        -1.138863
 H         3.671201        -1.034225         0.324141
