19
Iteration:  1331charge 0 multiplicity 1
 C         2.570623         2.280460         0.636496
 C         2.330910         0.908295         1.247081
 C         2.740038         0.346884         2.628394
 C         2.003008        -1.040088         2.491347
 O         0.636059        -0.558294         2.196218
 C         1.083242        -0.083402         0.946494
 C         0.086285         0.295661        -0.127619
 C         2.269871        -1.079854         0.803961
 O         3.141246        -0.084528         0.437454
 H         1.720885         2.906916         0.474336
 H         3.282365         2.846235         1.229121
 H         2.963873         2.084747        -0.361536
 H         3.915595         0.331612         2.777407
 H         2.271495         0.646268         3.518229
 H         1.992723        -1.785286         3.266061
 H        -0.530763        -0.570050        -0.552527
 H        -0.598785         1.082795         0.178072
 H         0.621970         0.618784        -1.075780
 H         2.477883        -1.973755         0.241361
