19
Iteration:  1001
 C         2.627116         2.251590         0.771582
 C         2.398382         0.872112         1.163903
 C         2.566423         0.417733         2.647066
 C         2.074991        -0.916502         2.438037
 O         0.620217        -0.618517         2.238888
 C         1.088661        -0.138695         0.868256
 C         0.107311         0.361783        -0.140523
 C         2.275367        -1.135870         0.860236
 O         3.142696        -0.135999         0.337881
 H         2.536256         3.146063         1.486224
 H         3.631188         2.223082         0.390110
 H         1.801186         2.484596         0.031284
 H         3.532201         0.610069         3.023052
 H         1.791475         0.892970         3.363664
 H         2.277801        -1.764095         3.241438
 H        -0.749861        -0.290847        -0.169624
 H        -0.054529         1.435837         0.158241
 H         0.723695         0.386093        -1.088938
 H         2.209538        -2.165801         0.372237
