19
Iteration:  1363charge 0 multiplicity 1
 C         2.608512         2.341355         0.799920
 C         2.500790         0.856228         1.180820
 C         2.730280         0.435037         2.568876
 C         1.982844        -0.980674         2.438249
 O         0.595499        -0.578062         2.232334
 C         1.094888         0.019087         0.928983
 C         0.015406         0.183887        -0.167442
 C         2.173695        -1.055762         0.832665
 O         3.217986        -0.199547         0.387024
 H         1.634690         2.775274         0.959276
 H         3.366801         2.875321         1.396068
 H         2.958138         2.442546        -0.260520
 H         3.844530         0.473438         2.969178
 H         2.069431         0.889689         3.249927
 H         2.043967        -1.736759         3.198806
 H        -0.071956        -0.833970        -0.648465
 H        -0.960890         0.377797         0.255679
 H         0.261334         1.030963        -0.930546
 H         2.129543        -2.006543         0.257839
