19
Iteration:  2388charge 0 multiplicity 1
 C         2.015455         2.362471         1.102178
 C         2.237516         0.946374         1.320423
 C         2.298581         0.333750         2.737021
 C         2.019717        -1.071265         2.321394
 O         0.659913        -0.921407         1.772825
 C         1.247087        -0.149244         0.720169
 C         0.393314         0.112096        -0.401275
 C         2.654860        -0.954294         0.831469
 O         3.422902         0.282396         0.769841
 H         1.678272         2.759835         2.113805
 H         3.026064         2.742986         0.923065
 H         1.234162         2.590401         0.427146
 H         3.127795         0.669970         3.271477
 H         1.403039         0.793364         3.309936
 H         2.039693        -1.858874         3.052151
 H        -0.707774        -0.013925        -0.177211
 H         0.387523         1.185440        -0.673127
 H         0.639824        -0.393655        -1.391568
 H         3.030314        -1.774972         0.221411
