19
Iteration:  2998
 C         1.625947         2.390127         1.393451
 C         1.988772         0.909178         1.567774
 C         1.997257         0.305157         2.889444
 C         2.020620        -1.092835         2.273006
 O         0.815191        -1.279612         1.445474
 C         1.390463        -0.287231         0.550449
 C         0.905781         0.098107        -0.780117
 C         2.818317        -0.683698         0.878868
 O         3.313609         0.628194         1.017350
 H         2.110399         2.988281         2.204479
 H         1.873511         2.894394         0.404024
 H         0.465609         2.532302         1.344102
 H         2.879210         0.516140         3.606470
 H         1.061337         0.360331         3.346397
 H         2.387346        -2.003268         2.772754
 H         1.409553        -0.489700        -1.620416
 H        -0.104449        -0.272199        -0.796750
 H         1.037606         1.117118        -0.952967
 H         3.431301        -1.447950         0.350255
