19
Iteration:  2163
 C         2.291881         2.433150         1.110716
 C         2.340135         0.913211         1.271041
 C         2.437677         0.376910         2.720679
 C         1.955921        -0.963856         2.341018
 O         0.628086        -0.782727         1.906139
 C         1.176010        -0.108001         0.711591
 C         0.235825        -0.009367        -0.289246
 C         2.467226        -0.999829         0.858291
 O         3.362146         0.132162         0.550029
 H         2.658733         3.016617         2.027172
 H         2.880200         2.680473         0.236881
 H         1.291924         2.922278         0.910197
 H         3.458174         0.301486         2.945552
 H         1.775653         0.853125         3.507482
 H         2.211500        -1.789045         2.997382
 H        -0.684165        -0.475808         0.074458
 H        -0.010005         1.067573        -0.530913
 H         0.570752        -0.478868        -1.150582
 H         2.721195        -1.956582         0.327697
