19
Iteration:  1744
 C         2.467763         2.227787         0.745414
 C         2.419248         0.859727         1.275409
 C         2.610442         0.374610         2.680784
 C         2.016200        -0.939967         2.407905
 O         0.635109        -0.697339         2.188403
 C         1.118500         0.001675         0.843510
 C         0.045121         0.288676        -0.256181
 C         2.291860        -1.041587         0.833329
 O         3.299631        -0.064828         0.495536
 H         2.903266         2.937831         1.369779
 H         3.071154         2.281124        -0.149655
 H         1.449161         2.510959         0.438909
 H         3.662221         0.475694         3.102063
 H         2.021647         0.914769         3.340604
 H         2.368533        -1.866206         2.956484
 H         0.086024         1.306490        -0.624976
 H         0.148616        -0.509211        -0.933626
 H        -1.009538         0.353575         0.201134
 H         2.285630        -2.025925         0.339876
