19
Iteration:  1707charge 0 multiplicity 1
 C         2.483825         2.432806         0.790901
 C         2.414528         0.863427         1.137447
 C         2.638358         0.306926         2.661011
 C         1.957421        -0.971783         2.445472
 O         0.618978        -0.622446         2.139514
 C         1.176920        -0.110550         0.817666
 C         0.056660         0.251805        -0.154333
 C         2.334931        -1.120146         0.917582
 O         3.247372        -0.083136         0.430054
 H         2.491391         3.139339         1.708040
 H         3.435930         2.601925         0.207522
 H         1.555924         2.694240         0.164887
 H         3.673810         0.217913         2.901688
 H         2.044436         1.028322         3.380261
 H         2.085629        -1.757309         3.227193
 H        -0.068851         1.408085        -0.303049
 H         0.127185        -0.101399        -1.261573
 H        -0.872394        -0.147019         0.328321
 H         2.484978        -2.191908         0.483026
