19
Iteration:  3990
 C         1.409622         2.312378         1.340898
 C         1.845939         0.941308         1.560181
 C         1.730047         0.190680         2.898879
 C         2.059052        -1.189379         2.197264
 O         0.928594        -1.375127         1.258576
 C         1.498998        -0.248988         0.508188
 C         1.116682         0.333276        -0.783587
 C         2.998630        -0.712465         0.997013
 O         3.302945         0.693725         1.235306
 H         0.338324         2.416997         1.380231
 H         1.973256         3.087138         1.873026
 H         1.705114         2.618320         0.284444
 H         2.423603         0.589032         3.637774
 H         0.732644        -0.007276         3.345442
 H         2.172718        -2.141678         2.846865
 H         0.787442        -0.423302        -1.477994
 H         0.158159         0.828675        -0.490191
 H         1.817093         1.010728        -1.155623
 H         3.863079        -1.164287         0.565315
