19
Iteration:  1074charge 0 multiplicity 1
 C         2.599945         2.247833         0.873279
 C         2.417950         0.819454         1.146367
 C         2.666463         0.418775         2.610153
 C         2.058495        -0.911441         2.413325
 O         0.633047        -0.512601         2.198704
 C         1.073848        -0.056324         0.918185
 C         0.085457         0.228287        -0.191048
 C         2.172411        -1.121183         0.843522
 O         3.206275        -0.122999         0.348856
 H         1.754504         2.741720         1.380040
 H         3.495629         2.567921         1.316505
 H         2.415965         2.521861        -0.141360
 H         3.675464         0.375950         2.910264
 H         2.051331         1.027988         3.372077
 H         2.262276        -1.720894         3.111814
 H        -0.705302        -0.466365         0.174125
 H        -0.280219         1.247624        -0.048618
 H         0.458881        -0.039331        -1.135659
 H         2.116419        -2.152383         0.269870
