19
Iteration:  2979charge 0 multiplicity 1
 C         1.658095         2.425909         1.458492
 C         1.948386         0.996040         1.462753
 C         1.854596         0.286260         2.876493
 C         2.135577        -1.152256         2.235061
 O         0.821536        -1.256244         1.503070
 C         1.386136        -0.198198         0.606297
 C         0.841393         0.028579        -0.768204
 C         2.842785        -0.742504         0.852374
 O         3.394709         0.588033         0.986664
 H         1.648447         2.775747         2.442667
 H         2.387907         2.923385         0.793683
 H         0.651798         2.611905         1.058678
 H         2.672973         0.668945         3.433192
 H         0.857272         0.431408         3.365549
 H         2.245621        -2.003803         2.939146
 H         1.657565        -0.068089        -1.519396
 H        -0.030126        -0.596014        -1.032560
 H         0.603077         1.087588        -0.814854
 H         3.424380        -1.428919         0.156232
