19
Iteration:  4050
 C         1.545022         2.456376         1.635779
 C         1.947782         1.020528         1.513218
 C         1.739657         0.117160         2.898496
 C         2.003635        -1.133578         2.165130
 O         0.927363        -1.162840         1.180472
 C         1.593970        -0.198760         0.406751
 C         0.913138        -0.218135        -0.944840
 C         2.931410        -0.648700         0.960368
 O         3.333016         0.759611         1.349491
 H         0.572899         2.541788         1.065139
 H         1.269048         2.667663         2.693305
 H         2.283398         3.062178         1.178128
 H         2.543409         0.442746         3.601793
 H         0.745232        -0.026280         3.413562
 H         1.936825        -2.095781         2.657051
 H         0.675203        -1.208109        -1.456197
 H        -0.025013         0.321258        -0.681246
 H         1.406532         0.505548        -1.756973
 H         3.919714        -1.048655         0.522156
