19
Iteration:  4872charge 0 multiplicity 1
 C         1.151146         2.416414         1.757030
 C         1.814502         0.999189         1.560478
 C         1.836555         0.036013         2.849679
 C         2.227837        -1.221418         2.069181
 O         1.067361        -1.395978         1.303057
 C         1.515304        -0.268126         0.508637
 C         1.089284         0.003247        -0.862294
 C         2.935159        -0.492531         0.869546
 O         3.233421         0.905461         1.125298
 H         0.075917         2.138293         1.558462
 H         1.139648         2.825281         2.735608
 H         1.445629         3.123194         0.975190
 H         2.693363         0.295646         3.465266
 H         0.869059        -0.044895         3.422939
 H         2.553588        -2.069896         2.617827
 H         0.416254         0.847057        -0.919536
 H         2.059042         0.333607        -1.384252
 H         0.769828        -0.912613        -1.454092
 H         3.912698        -0.915999         0.433769
