19
Iteration:  2949charge 0 multiplicity 1
 C         1.697291         2.474755         1.394796
 C         2.027150         1.008190         1.537344
 C         1.943780         0.286970         2.959356
 C         2.025414        -1.158600         2.180196
 O         0.781475        -1.210243         1.402933
 C         1.416544        -0.235122         0.509727
 C         0.700663        -0.107844        -0.754430
 C         2.884054        -0.710841         0.864661
 O         3.415607         0.631239         1.088754
 H         1.365989         2.842385         2.377629
 H         2.600925         3.059681         1.207854
 H         1.088504         2.735780         0.572760
 H         2.832063         0.426758         3.495010
 H         0.980262         0.494225         3.591786
 H         2.142062        -2.132247         2.677800
 H         1.220978         0.491437        -1.462028
 H         0.440838        -1.100249        -1.210484
 H        -0.183070         0.548800        -0.409481
 H         3.601748        -1.351838         0.327235
