19
Iteration:  3497
 C         1.258457         2.238113         1.352969
 C         1.991533         0.912823         1.638164
 C         1.691089         0.104877         2.846819
 C         2.040420        -1.207794         2.153236
 O         0.886862        -1.199672         1.260443
 C         1.581589        -0.132839         0.519251
 C         1.176241         0.191808        -0.965990
 C         2.935557        -0.667170         1.027317
 O         3.373413         0.746853         1.377716
 H         0.281083         1.951365         1.746633
 H         1.588648         3.140059         1.960045
 H         1.174932         2.709440         0.343213
 H         2.540070         0.433106         3.581546
 H         0.772986         0.121974         3.387736
 H         2.065105        -2.245944         2.546159
 H         1.815076        -0.481587        -1.600103
 H         0.189660        -0.238509        -0.931759
 H         1.107851         1.246651        -1.252190
 H         3.790250        -1.222393         0.490345
