19
Iteration:   682charge 0 multiplicity 1
 C         2.625003         2.295289         0.718979
 C         2.409601         0.855342         1.113739
 C         2.627170         0.498407         2.593032
 C         2.009386        -0.968924         2.426277
 O         0.634167        -0.641742         2.178788
 C         1.096288        -0.127538         0.859307
 C        -0.004003         0.366206        -0.105246
 C         2.191470        -1.127075         0.912041
 O         3.294372        -0.190970         0.449266
 H         2.337312         2.923448         1.557985
 H         3.718272         2.518136         0.606573
 H         2.007702         2.726859        -0.092437
 H         3.557276         0.631292         3.018608
 H         1.846910         1.026676         3.197122
 H         2.116043        -1.711094         3.310218
 H        -0.352764        -0.524063        -0.696867
 H        -0.716907         0.693352         0.540617
 H         0.378559         1.116723        -0.753333
 H         2.362154        -2.150105         0.382696
