19
Iteration:  4500charge 0 multiplicity 1
 C         1.369733         2.317857         1.545686
 C         1.912560         0.972130         1.579516
 C         1.655849         0.113618         2.863830
 C         2.107200        -1.222787         2.172442
 O         1.047687        -1.286737         1.130918
 C         1.622828        -0.209163         0.480471
 C         0.811189         0.034407        -0.892522
 C         3.081401        -0.502994         0.973433
 O         3.346190         0.813742         1.313417
 H         0.304450         2.266858         1.471914
 H         1.658854         3.055214         2.309715
 H         1.726618         2.866773         0.612142
 H         2.133363         0.350151         3.825590
 H         0.667944        -0.073504         3.222532
 H         2.364148        -2.219347         2.659028
 H        -0.100883        -0.527408        -0.627018
 H         0.540327         1.007985        -1.232152
 H         1.377648        -0.571539        -1.515501
 H         3.892403        -1.174456         0.821606
