19
Iteration:    12
 C         2.589258         2.275055         0.640224
 C         2.482408         0.846971         1.112875
 C         2.661353         0.346239         2.643545
 C         1.935140        -0.963242         2.374517
 O         0.599979        -0.489131         2.222691
 C         1.110143         0.004952         0.920088
 C         0.001117         0.270556         0.017596
 C         2.223023        -1.126075         0.808477
 O         3.327225        -0.172512         0.424471
 H         1.806796         2.748053         1.261013
 H         3.550460         2.778444         0.843262
 H         2.288073         2.453184        -0.406434
 H         3.668148         0.270039         3.067304
 H         1.940522         0.797733         3.325367
 H         1.934298        -1.804833         3.078705
 H        -0.440921        -0.662921        -0.352566
 H        -0.708628         0.995546         0.381160
 H         0.535960         0.750140        -0.843675
 H         2.134734        -2.154148         0.423344
