19
Iteration:  1618charge 0 multiplicity 1
 C         2.517917         2.319113         0.767251
 C         2.411511         0.867816         1.181785
 C         2.723829         0.414528         2.646135
 C         1.977902        -0.952025         2.383608
 O         0.609065        -0.622349         2.088107
 C         1.134854        -0.007933         0.854934
 C         0.013791         0.255142        -0.066636
 C         2.260068        -1.103253         0.870888
 O         3.262804        -0.201398         0.481026
 H         1.418880         2.670853         0.616521
 H         3.048428         3.046155         1.442822
 H         3.001128         2.506895        -0.186066
 H         3.791266         0.295526         2.640315
 H         2.296973         1.129909         3.395690
 H         2.006336        -1.719634         3.071242
 H        -0.898840         0.419058         0.558939
 H         0.188128         1.298754        -0.505378
 H         0.048956        -0.517725        -0.829178
 H         2.240511        -2.040933         0.373549
