19
Iteration:  2066
 C         2.244051         2.375480         0.914975
 C         2.252266         0.878499         1.232953
 C         2.559421         0.444242         2.689896
 C         2.101197        -1.076542         2.332652
 O         0.613078        -0.807359         2.026999
 C         1.172048        -0.124259         0.803261
 C         0.159841         0.254678        -0.297405
 C         2.409041        -1.030331         0.784267
 O         3.385113         0.056442         0.705737
 H         1.281498         2.775361         0.664753
 H         2.832763         2.825400         1.623407
 H         2.795859         2.544698        -0.023224
 H         3.577030         0.607012         2.937569
 H         1.807245         0.793434         3.450657
 H         2.185216        -1.875054         3.096337
 H         0.480085         0.077154        -1.354883
 H        -0.839967        -0.271014        -0.221804
 H        -0.014338         1.290520        -0.336742
 H         2.723383        -1.981253         0.258985
