19
Iteration:  4386
 C         1.356629         2.381623         1.813689
 C         1.875579         1.049373         1.617053
 C         1.732440         0.194197         2.855147
 C         2.070476        -1.159078         2.186103
 O         0.924192        -1.228512         1.226959
 C         1.538077        -0.217503         0.459809
 C         1.050798        -0.207157        -1.083212
 C         3.006418        -0.562260         0.938738
 O         3.351941         0.775712         1.193913
 H         0.293803         2.083107         2.131622
 H         2.062402         2.912345         2.469915
 H         1.346139         2.974384         0.910002
 H         2.487714         0.384052         3.659781
 H         0.722676         0.166159         3.331009
 H         2.194098        -2.073938         2.728673
 H         1.818924        -0.236994        -1.808207
 H         0.246509        -0.861492        -1.400475
 H         0.550264         0.752905        -1.373777
 H         3.881314        -1.155886         0.503511
