19
Iteration:  2624
 C         2.044433         2.611608         1.227412
 C         2.143499         1.069672         1.511207
 C         2.137963         0.311117         2.847239
 C         2.017620        -1.170042         2.188507
 O         0.665583        -1.118181         1.678286
 C         1.300904        -0.252145         0.710786
 C         0.471454        -0.071524        -0.622717
 C         2.727006        -0.868662         0.806327
 O         3.393686         0.474332         0.878050
 H         0.945856         2.911297         1.095990
 H         2.194092         3.225012         2.163173
 H         2.660301         2.846674         0.383810
 H         3.102796         0.397861         3.379358
 H         1.268007         0.581115         3.575925
 H         2.202912        -2.081599         2.734921
 H        -0.568555        -0.165616        -0.265721
 H         0.556509         0.837117        -1.277120
 H         0.842137        -0.904899        -1.452823
 H         3.310431        -1.467013         0.077117
