19
Iteration:  3121charge 0 multiplicity 1
 C         1.539543         2.478452         1.456816
 C         1.873044         0.980973         1.558356
 C         1.808656         0.147777         2.867023
 C         2.145443        -1.214703         2.181927
 O         0.864218        -1.249751         1.398886
 C         1.494180        -0.206886         0.549082
 C         0.881622        -0.040380        -0.849021
 C         2.907742        -0.590653         0.866694
 O         3.383254         0.708971         1.167595
 H         1.253997         2.780940         0.420048
 H         0.643403         2.613766         2.107583
 H         2.377702         3.103908         1.721498
 H         2.536239         0.443622         3.540552
 H         0.794202         0.174310         3.360022
 H         2.360427        -2.108166         2.812077
 H         0.292332         0.791670        -1.079959
 H         1.746970        -0.000744        -1.517189
 H         0.335959        -0.933222        -1.061579
 H         3.481435        -1.423191         0.401974
