19
Iteration:   129
 C         2.582574         2.391955         0.719419
 C         2.382848         0.877596         1.133175
 C         2.784083         0.260902         2.616020
 C         1.908034        -0.983296         2.447036
 O         0.612744        -0.394374         2.156232
 C         1.088877        -0.095906         0.868233
 C         0.047982         0.159293        -0.074156
 C         2.209910        -1.147482         0.866142
 O         3.245365        -0.124444         0.468505
 H         2.171274         3.055379         1.559219
 H         3.679626         2.639601         0.761588
 H         2.168637         2.687523        -0.321137
 H         3.906028        -0.171500         2.521702
 H         2.652859         0.945154         3.502885
 H         1.965519        -1.820672         3.088944
 H        -0.347188        -0.729620        -0.612684
 H        -0.941887         0.748047         0.461834
 H         0.274804         0.885233        -0.914985
 H         2.254298        -2.054332         0.388415
