19
Iteration:  4917charge 0 multiplicity 1
 C         1.115002         2.278478         1.430832
 C         1.882532         0.931043         1.621081
 C         1.872751         0.046339         2.929749
 C         2.213446        -1.195713         2.102882
 O         1.087143        -1.425546         1.267441
 C         1.537354        -0.247170         0.521154
 C         0.947568         0.219195        -0.799555
 C         2.990483        -0.444801         0.865248
 O         3.267612         0.824857         1.284142
 H         0.116169         2.048029         0.973481
 H         0.960026         2.740856         2.384715
 H         1.723368         2.822590         0.760106
 H         2.745087         0.374426         3.472768
 H         0.941124         0.011869         3.554387
 H         2.713076        -2.086609         2.491832
 H         0.033177         0.739448        -0.481899
 H         1.630690         0.949303        -1.329928
 H         0.676447        -0.568326        -1.527317
 H         3.666062        -1.028482         0.160596
