19
Iteration:  3949charge 0 multiplicity 1
 C         1.331362         2.380286         1.526492
 C         1.932115         0.978703         1.660714
 C         1.825605         0.156984         2.893760
 C         2.012764        -1.162257         2.136325
 O         0.830170        -1.205897         1.192290
 C         1.637107        -0.129455         0.543112
 C         1.073927        -0.023078        -0.962472
 C         2.935890        -0.655230         0.956401
 O         3.379970         0.658982         1.283257
 H         0.498452         2.344145         2.210376
 H         1.896204         3.217153         1.866834
 H         0.924620         2.629283         0.494949
 H         2.520457         0.555884         3.718331
 H         0.852046         0.059619         3.286618
 H         2.025380        -1.992600         2.877973
 H         1.458692        -0.923150        -1.602377
 H        -0.009897         0.258364        -1.169117
 H         1.532724         0.860395        -1.451517
 H         3.542356        -1.366020         0.445290
