19
Iteration:  4851
 C         1.209181         2.243346         1.779087
 C         1.818885         0.954147         1.595384
 C         1.850408         0.143319         2.932665
 C         2.274223        -1.110745         2.127272
 O         1.013073        -1.386304         1.143502
 C         1.551418        -0.162964         0.468528
 C         0.966904        -0.110605        -1.002727
 C         2.956384        -0.467097         0.895304
 O         3.287435         0.907840         1.272850
 H         0.113197         2.289514         1.990465
 H         1.627651         2.771943         2.584410
 H         1.433346         2.854581         0.900160
 H         2.548442         0.504013         3.675599
 H         0.799847         0.120095         3.325533
 H         2.474782        -2.043515         2.572722
 H         0.006227         0.383098        -1.046258
 H         1.593864         0.387661        -1.799131
 H         0.879194        -1.199661        -1.249787
 H         3.776277        -0.837307         0.172553
