19
Iteration:   407
 C         2.515507         2.337705         0.716240
 C         2.422425         0.875582         1.194773
 C         2.693610         0.355146         2.657814
 C         2.041032        -1.018269         2.423248
 O         0.593909        -0.548065         2.245549
 C         1.132060        -0.035101         0.970636
 C         0.248091         0.279189        -0.193212
 C         2.132382        -1.094193         0.867881
 O         3.112962        -0.148717         0.349123
 H         1.663557         2.858093         0.980367
 H         3.339586         2.693309         1.270500
 H         2.663438         2.338337        -0.309247
 H         3.745725         0.380580         2.908250
 H         2.080106         0.855677         3.320461
 H         2.272254        -1.791261         3.117499
 H        -0.580246        -0.373194        -0.005880
 H        -0.058096         1.322696        -0.210497
 H         0.853391        -0.027608        -1.136355
 H         2.050482        -2.071023         0.244963
