19
Iteration:  2432charge 0 multiplicity 1
 C         2.212547         2.353821         1.137343
 C         2.216298         0.986497         1.430970
 C         2.247491         0.358209         2.851422
 C         2.003940        -1.078146         2.320183
 O         0.676208        -1.058358         1.731362
 C         1.188016        -0.198016         0.746801
 C         0.359949         0.009655        -0.521595
 C         2.644881        -0.814956         0.803637
 O         3.320810         0.435663         0.740828
 H         2.589659         2.981280         2.025371
 H         2.812005         2.584659         0.246693
 H         1.242040         2.805208         0.946171
 H         3.206710         0.473352         3.286647
 H         1.413805         0.739967         3.567589
 H         2.255389        -1.996116         2.863299
 H        -0.232693         0.992138        -0.597077
 H         1.022562        -0.062311        -1.444254
 H        -0.268443        -0.937800        -0.496169
 H         3.101218        -1.581786         0.160444
