19
Iteration:  4618
 C         1.241015         2.249281         1.421295
 C         1.907624         0.901497         1.633051
 C         1.789595         0.107374         2.958304
 C         2.121343        -1.229403         2.071724
 O         1.027525        -1.326333         1.116849
 C         1.588406        -0.200840         0.491522
 C         0.840221         0.120404        -0.799430
 C         3.074454        -0.502229         0.949476
 O         3.356185         0.849528         1.364415
 H         0.212984         2.138160         1.717444
 H         1.771139         3.118414         1.890031
 H         1.362354         2.347080         0.307145
 H         2.430458         0.375405         3.827010
 H         0.738416         0.142549         3.348639
 H         2.234867        -2.025165         2.829361
 H         1.180284         1.054908        -1.412157
 H         1.060059        -0.702646        -1.501972
 H        -0.224414         0.194119        -0.658683
 H         3.937507        -0.922586         0.578057
