19
Iteration:  3107charge 0 multiplicity 1
 C         1.626908         2.426721         1.468895
 C         1.894062         0.981110         1.562509
 C         1.805288         0.194984         2.877700
 C         2.069270        -1.107907         2.210090
 O         0.937875        -1.382289         1.359210
 C         1.383882        -0.195782         0.556662
 C         0.874328        -0.018532        -0.890202
 C         2.890835        -0.648504         0.963866
 O         3.346782         0.742908         1.115013
 H         1.793432         2.755948         0.457243
 H         0.608862         2.852403         1.751728
 H         2.427103         2.884943         2.167458
 H         2.694497         0.556107         3.544524
 H         0.868713         0.066531         3.383140
 H         2.343843        -1.951405         2.847726
 H        -0.117736         0.585158        -0.779208
 H         1.627634         0.444628        -1.545896
 H         0.648145        -0.982145        -1.310183
 H         3.596961        -1.127769         0.239161
