19
Iteration:   772charge 0 multiplicity 1
 C         2.658433         2.284457         0.722019
 C         2.441064         0.868178         1.182274
 C         2.591480         0.442880         2.591285
 C         2.033143        -0.946116         2.446672
 O         0.651293        -0.649102         2.261033
 C         1.025092        -0.035479         0.964889
 C         0.146898         0.261003        -0.188823
 C         2.198084        -1.076078         0.844273
 O         3.148578        -0.151872         0.372551
 H         2.297557         2.882321         1.686115
 H         3.688423         2.436375         0.506327
 H         1.920598         2.550007        -0.037941
 H         3.642477         0.546297         2.870942
 H         1.939323         0.946975         3.424593
 H         2.256581        -1.720716         3.091127
 H        -0.653485        -0.433223        -0.279924
 H        -0.372084         1.305531        -0.161675
 H         0.717716         0.213131        -1.066208
 H         2.200225        -2.064340         0.420244
