19
Iteration:   993charge 0 multiplicity 1
 C         2.635016         2.264697         0.707668
 C         2.349154         0.817010         1.170191
 C         2.516863         0.462098         2.633720
 C         2.059059        -0.979485         2.444879
 O         0.644209        -0.614662         2.231882
 C         1.124418        -0.143583         0.898787
 C         0.164733         0.358745        -0.105026
 C         2.227597        -1.129064         0.901718
 O         3.142446        -0.100388         0.326982
 H         2.549477         2.703990         1.714651
 H         3.693059         2.297846         0.256893
 H         2.122161         2.642990        -0.210644
 H         3.540011         0.662528         3.062162
 H         1.752620         0.855251         3.182353
 H         2.349541        -1.895260         3.056442
 H        -0.749835        -0.179202        -0.259473
 H        -0.241035         1.286708         0.364376
 H         0.607955         0.742107        -1.090210
 H         2.429923        -2.049846         0.498436
