19
Iteration:  1490charge 0 multiplicity 1
 C         2.595158         2.407968         0.844572
 C         2.485956         0.833926         1.092809
 C         2.695211         0.419691         2.550023
 C         2.026640        -0.929308         2.415971
 O         0.539886        -0.574317         2.115145
 C         1.063558        -0.129557         0.893034
 C         0.038985         0.209795        -0.112431
 C         2.270564        -1.141798         0.918840
 O         3.220903        -0.157410         0.444639
 H         2.143301         2.916280         1.700906
 H         3.550445         2.872742         0.669578
 H         1.926718         2.685703        -0.028571
 H         3.705228         0.397835         2.869206
 H         2.036914         0.892826         3.470623
 H         2.072841        -1.617918         3.188240
 H        -0.825003        -0.432299        -0.033866
 H        -0.203333         1.346171         0.041486
 H         0.480154         0.223903        -1.141449
 H         2.394758        -2.195301         0.409533
