19
Iteration:   483charge 0 multiplicity 1
 C         2.666835         2.305185         0.793360
 C         2.426137         0.858698         1.111509
 C         2.610031         0.503405         2.582794
 C         2.028327        -0.888059         2.379237
 O         0.533663        -0.597159         2.127296
 C         1.112985        -0.105833         0.864679
 C        -0.054009         0.284576        -0.030858
 C         2.266378        -1.120656         0.817489
 O         3.327950        -0.258966         0.471175
 H         2.102363         2.799906         1.571116
 H         3.741894         2.575029         0.886181
 H         2.304146         2.483918        -0.207675
 H         3.611249         0.637607         3.028047
 H         1.910766         1.007755         3.156070
 H         2.228138        -1.509048         3.241650
 H        -0.535655        -0.558833        -0.495204
 H        -0.691078         0.666421         0.715959
 H         0.215678         1.173078        -0.690364
 H         2.216730        -2.196472         0.333994
