19
Iteration:  1917
 C         2.385633         2.302549         0.854253
 C         2.396800         0.903121         1.263269
 C         2.557535         0.446863         2.764252
 C         2.003285        -0.920976         2.379033
 O         0.578437        -0.699636         2.019364
 C         1.111847        -0.218448         0.840396
 C         0.087748         0.214199        -0.275313
 C         2.437216        -1.130111         0.783447
 O         3.343134         0.027188         0.565181
 H         2.034503         2.586667        -0.117944
 H         1.705694         2.827994         1.553034
 H         3.480751         2.588703         0.842363
 H         3.642691         0.552953         3.070349
 H         1.977393         0.956858         3.454658
 H         2.071532        -1.734811         3.123540
 H        -0.881414         0.105385         0.133425
 H         0.133528         1.279580        -0.362220
 H         0.096799        -0.116703        -1.285390
 H         2.804038        -2.021548         0.263114
