19
Iteration:  2966
 C         1.682771         2.522351         1.442730
 C         2.024592         0.967147         1.490392
 C         1.952868         0.178537         2.757135
 C         2.087547        -1.141294         2.243479
 O         0.820239        -1.194015         1.466703
 C         1.427745        -0.250833         0.584858
 C         0.752617         0.025933        -0.775787
 C         2.842933        -0.724955         0.970897
 O         3.334639         0.603689         1.025816
 H         1.423721         2.988411         2.399792
 H         2.499228         3.172963         1.009723
 H         0.719804         2.617114         0.825505
 H         2.610115         0.555484         3.605295
 H         0.989556         0.095359         3.171644
 H         2.367945        -1.987899         2.883711
 H         1.579410         0.054747        -1.573055
 H         0.146352        -0.838375        -0.992945
 H         0.050182         0.802790        -0.890216
 H         3.466169        -1.497053         0.452627
