19
Iteration:  3856charge 0 multiplicity 1
 C         1.473358         2.400410         1.426326
 C         1.876378         0.983679         1.558161
 C         1.699412         0.117455         2.833171
 C         2.123711        -1.212511         2.169164
 O         0.924790        -1.302048         1.156465
 C         1.513445        -0.208577         0.488336
 C         0.931239         0.084028        -0.787682
 C         2.992909        -0.606891         1.034930
 O         3.382752         0.711878         1.328153
 H         0.369295         2.257076         1.217050
 H         1.492190         2.993682         2.387379
 H         1.956934         2.895521         0.613638
 H         2.187353         0.567304         3.663157
 H         0.588678         0.042186         3.073932
 H         2.273211        -2.156799         2.633533
 H         0.943067        -0.726462        -1.436514
 H         0.056825         0.660208        -0.674449
 H         1.658172         0.868524        -1.112248
 H         3.817453        -1.210284         0.548319
