19
Iteration:  2094charge 0 multiplicity 1
 C         2.378267         2.397184         0.933270
 C         2.332777         0.946027         1.314499
 C         2.452591         0.429363         2.785515
 C         2.005407        -1.025126         2.399931
 O         0.657292        -0.918632         1.952474
 C         1.178765        -0.167735         0.868813
 C         0.235077         0.188445        -0.257939
 C         2.429140        -1.019562         0.795645
 O         3.249208         0.148404         0.461770
 H         1.432042         2.979355         1.263045
 H         3.401105         2.905478         1.185125
 H         2.381822         2.293202        -0.160318
 H         3.431814         0.483260         3.327485
 H         1.542418         0.846133         3.336778
 H         2.014700        -1.704739         3.273162
 H         0.393548        -0.414143        -1.163002
 H        -0.823709         0.095081        -0.169103
 H         0.398179         1.252657        -0.639263
 H         2.751973        -1.963171         0.378868
