19
Iteration:  1017charge 0 multiplicity 1
 C         2.563111         2.310966         0.745959
 C         2.399527         0.840393         1.235497
 C         2.738665         0.463872         2.641719
 C         1.987211        -0.989430         2.450657
 O         0.605967        -0.629351         2.152748
 C         1.055403        -0.067581         0.961969
 C         0.083963         0.297693        -0.176884
 C         2.197677        -1.080285         0.810660
 O         3.231158        -0.156126         0.430385
 H         2.489659         2.840563         1.653585
 H         3.566342         2.466788         0.222700
 H         1.885268         2.626856        -0.033006
 H         3.852958         0.317865         2.798682
 H         2.294217         1.103084         3.348959
 H         2.075352        -1.754248         3.137308
 H        -0.884746        -0.242012        -0.021392
 H        -0.211395         1.326752        -0.297476
 H         0.493526         0.022928        -1.147880
 H         2.302679        -2.015546         0.318052
