19
Iteration:  1611
 C         2.480723         2.350486         0.766280
 C         2.375397         0.901262         1.132895
 C         2.688327         0.372594         2.619945
 C         1.997586        -0.978893         2.409183
 O         0.595075        -0.579580         2.121460
 C         1.137629        -0.063891         0.888514
 C         0.005917         0.324549        -0.091424
 C         2.261799        -1.082577         0.895175
 O         3.360168        -0.224481         0.452137
 H         1.578777         2.831481         0.542108
 H         2.954983         2.897935         1.525778
 H         3.013911         2.323818        -0.195494
 H         3.756787         0.340454         2.749876
 H         2.220098         0.963726         3.447215
 H         2.116519        -1.864918         3.086100
 H        -0.904570         0.207335         0.456997
 H         0.067039         1.311874        -0.527126
 H        -0.224178        -0.461860        -0.802593
 H         2.341134        -2.132616         0.432016
