19
Iteration:  4657
 C         1.388364         2.464544         1.488258
 C         1.767558         0.983800         1.648924
 C         1.702865         0.073512         2.877694
 C         2.276980        -1.227373         2.156860
 O         1.101023        -1.531019         1.214930
 C         1.506812        -0.229027         0.463622
 C         0.861532         0.113256        -0.851554
 C         3.033886        -0.481145         0.880914
 O         3.272552         0.829637         1.327847
 H         0.261918         2.643869         1.302871
 H         1.399314         3.055834         2.426139
 H         1.951746         2.955366         0.699596
 H         2.209395         0.595608         3.667770
 H         0.659642        -0.241413         3.106781
 H         2.532170        -2.168785         2.633746
 H         1.733347         0.217151        -1.467484
 H         0.260249        -0.729122        -1.263771
 H         0.253144         1.036552        -0.816964
 H         3.897466        -1.076731         0.389326
