19
Iteration:  2386
 C         2.013605         2.332441         1.119075
 C         2.243336         0.949909         1.335429
 C         2.306988         0.323434         2.741708
 C         2.012634        -1.039945         2.338177
 O         0.659877        -0.910226         1.762535
 C         1.247674        -0.169692         0.723136
 C         0.381059         0.120042        -0.410379
 C         2.657125        -0.964120         0.824447
 O         3.422511         0.291746         0.758285
 H         1.624171         2.767605         2.107439
 H         3.050998         2.749621         0.907369
 H         1.258456         2.576978         0.360428
 H         3.136775         0.700361         3.292326
 H         1.410916         0.791126         3.230518
 H         2.048199        -1.846029         3.067264
 H        -0.679179        -0.067897        -0.203591
 H         0.376506         1.184046        -0.602359
 H         0.671566        -0.372122        -1.409953
 H         3.016245        -1.777529         0.195201
