19
Iteration:   169
 C         2.618161         2.247770         0.741132
 C         2.473605         0.829273         1.105554
 C         2.617099         0.427539         2.638963
 C         2.048332        -0.973830         2.410850
 O         0.656900        -0.594283         2.240747
 C         1.061820        -0.069909         0.943495
 C         0.027164         0.339467        -0.089148
 C         2.163437        -1.074424         0.776262
 O         3.231396        -0.155313         0.435766
 H         1.992273         2.792626         1.414536
 H         3.630540         2.544333         0.729762
 H         2.178459         2.512607        -0.200333
 H         3.647186         0.554419         2.962383
 H         1.902147         1.025711         3.117301
 H         2.182873        -1.827646         3.053634
 H        -0.819743        -0.318173        -0.186840
 H        -0.264184         1.329963         0.049554
 H         0.642206         0.193391        -1.048944
 H         2.149770        -2.091025         0.303921
