19
Iteration:  4502
 C         1.372969         2.329711         1.555555
 C         1.912052         0.949205         1.595260
 C         1.662411         0.120520         2.852958
 C         2.112014        -1.241681         2.163574
 O         1.047877        -1.276257         1.140495
 C         1.604520        -0.183096         0.469426
 C         0.814195         0.005494        -0.890587
 C         3.066252        -0.487990         0.971844
 O         3.345529         0.821040         1.315493
 H         0.275683         2.298291         1.456202
 H         1.691285         3.008483         2.304417
 H         1.697436         2.882076         0.663327
 H         2.185814         0.321633         3.824461
 H         0.684119        -0.113291         3.151997
 H         2.377933        -2.175202         2.743260
 H        -0.131459        -0.483860        -0.667800
 H         0.649465         1.008137        -1.301213
 H         1.428778        -0.646833        -1.573317
 H         3.908079        -1.270956         0.819076
