19
Iteration:  4170charge 0 multiplicity 1
 C         1.458789         2.344379         1.449886
 C         2.059896         0.970942         1.493101
 C         1.593450         0.142099         2.864375
 C         1.970188        -1.223767         2.189465
 O         0.883950        -1.261249         1.194834
 C         1.623287        -0.190144         0.442693
 C         0.900160         0.055841        -0.845982
 C         3.053205        -0.586180         0.969074
 O         3.421897         0.726429         1.391809
 H         0.647376         2.583132         2.148663
 H         2.309068         3.038912         1.605923
 H         1.178982         2.683894         0.499904
 H         2.223430         0.481312         3.727200
 H         0.478478         0.235706         3.027340
 H         2.023924        -2.047772         2.841705
 H         0.288579        -0.810391        -1.154460
 H         0.122373         0.779092        -0.557809
 H         1.624788         0.217446        -1.736300
 H         3.894873        -1.319593         0.796247
