19
Iteration:  2532
 C         1.931116         2.371112         1.096161
 C         2.130457         0.942503         1.498903
 C         2.256567         0.266746         2.843245
 C         2.104432        -1.118661         2.279476
 O         0.703135        -1.059084         1.813385
 C         1.248705        -0.189701         0.705827
 C         0.536904         0.171247        -0.649878
 C         2.615485        -0.810765         0.812268
 O         3.381147         0.408861         0.833081
 H         2.421139         2.632517         0.163072
 H         0.921851         2.657643         0.871374
 H         2.365448         3.127288         1.801964
 H         3.185115         0.382594         3.434016
 H         1.467062         0.610474         3.456925
 H         2.369386        -1.997348         2.915338
 H         0.925809        -0.509314        -1.475549
 H        -0.562352        -0.156460        -0.504773
 H         0.515330         1.215633        -0.876281
 H         2.737589        -1.711187         0.184036
