19
Iteration:  3888
 C         1.685958         2.504076         1.669567
 C         1.757825         1.031838         1.584801
 C         1.579521         0.132694         2.904269
 C         2.047848        -1.125502         2.157979
 O         0.977432        -1.464102         1.232413
 C         1.559624        -0.217480         0.402557
 C         1.023649        -0.076757        -0.962121
 C         2.945612        -0.536224         0.983958
 O         3.270932         0.763224         1.198121
 H         0.590627         2.703534         1.932900
 H         2.261540         2.844343         2.607358
 H         1.921845         3.004358         0.755525
 H         2.298515         0.628578         3.562719
 H         0.556358         0.118220         3.351406
 H         2.260807        -2.018673         2.672759
 H         1.151235        -0.889850        -1.620230
 H         0.033417         0.240193        -0.926110
 H         1.676869         0.759370        -1.301520
 H         3.655413        -1.289429         0.515784
