19
Iteration:  2284charge 0 multiplicity 1
 C         2.249296         2.458381         1.123702
 C         2.210990         1.048870         1.312949
 C         2.350893         0.418306         2.715173
 C         1.962299        -1.028034         2.289056
 O         0.620347        -0.936222         1.865613
 C         1.225833        -0.191213         0.681238
 C         0.285785        -0.007027        -0.345423
 C         2.593874        -0.907851         0.785223
 O         3.391052         0.161398         0.713654
 H         2.024190         2.697266         0.091433
 H         1.467968         2.884192         1.750930
 H         3.210020         2.909721         1.545650
 H         3.375096         0.625865         3.120936
 H         1.617454         0.667340         3.413687
 H         2.118832        -1.844352         3.008305
 H         0.826317         0.090237        -1.254343
 H        -0.462307        -0.802645        -0.359993
 H        -0.171688         0.905470        -0.181667
 H         2.838393        -1.797500         0.188831
