19
Iteration:   705
 C         2.540666         2.320572         0.837838
 C         2.427693         0.841383         1.131631
 C         2.668247         0.465260         2.608201
 C         2.030291        -0.943299         2.404813
 O         0.576513        -0.464546         2.134586
 C         1.117705        -0.070159         0.881930
 C         0.035211         0.255437        -0.123280
 C         2.235037        -1.110628         0.859340
 O         3.299805        -0.299566         0.418659
 H         2.389271         3.001692         1.726481
 H         3.484279         2.546130         0.341092
 H         1.651431         2.541733         0.219939
 H         3.679933         0.477739         2.846599
 H         2.081344         1.016266         3.454918
 H         2.059501        -1.618161         3.308315
 H        -0.080541        -0.718266        -0.647983
 H        -0.781321         0.402037         0.545532
 H         0.294857         1.013502        -0.778208
 H         2.113904        -2.105470         0.260732
