19
Iteration:   191
 C         2.632903         2.324493         0.684558
 C         2.250801         0.903815         1.242127
 C         2.648281         0.436675         2.618391
 C         2.081291        -1.000004         2.413657
 O         0.604768        -0.671756         2.213729
 C         1.091818        -0.126669         0.942894
 C         0.147022         0.433054        -0.117385
 C         2.234959        -1.169026         0.896890
 O         3.145496        -0.145538         0.350224
 H         2.042128         3.165306         0.999219
 H         3.658078         2.371108         0.910555
 H         2.555715         2.411464        -0.389716
 H         3.750209         0.414694         2.722851
 H         2.090326         0.952923         3.343987
 H         2.366651        -1.735401         3.120997
 H        -0.806146        -0.012419         0.051523
 H         0.096627         1.420330         0.052668
 H         0.541704         0.089994        -1.130780
 H         2.214281        -2.198207         0.465006
