19
Iteration:  4380charge 0 multiplicity 1
 C         1.393946         2.394534         1.758329
 C         1.909634         1.008495         1.640947
 C         1.731419         0.161602         2.838507
 C         2.074999        -1.138406         2.187799
 O         0.909092        -1.236444         1.230734
 C         1.540244        -0.259918         0.382479
 C         1.025449        -0.177103        -1.036778
 C         2.994681        -0.556943         0.958313
 O         3.350565         0.819735         1.193620
 H         0.456971         2.242467         2.250350
 H         1.955618         2.826529         2.648717
 H         1.253825         3.202294         0.985272
 H         2.290784         0.517468         3.706614
 H         0.726025         0.028337         3.311344
 H         2.031910        -2.179395         2.623628
 H         1.939828        -0.290104        -1.721835
 H         0.426608        -1.121269        -1.257924
 H         0.483715         0.728343        -1.263867
 H         3.823971        -1.023654         0.502415
