19
Iteration:  1467
 C         2.546126         2.258886         0.742457
 C         2.316263         0.849569         1.216966
 C         2.707153         0.450739         2.646324
 C         1.979369        -0.918828         2.462768
 O         0.642579        -0.617776         2.167324
 C         1.096896        -0.091995         0.880228
 C         0.034770         0.288549        -0.185973
 C         2.279665        -1.101074         0.818719
 O         3.253967        -0.148442         0.455548
 H         2.524543         3.034738         1.522867
 H         3.540403         2.224225         0.317319
 H         1.883358         2.586369        -0.066295
 H         3.698990         0.259077         2.913533
 H         2.183294         1.075862         3.528583
 H         2.136241        -1.734100         3.122349
 H        -0.627360        -0.490285        -0.583154
 H        -0.546637         1.171770         0.291462
 H         0.623354         0.839165        -0.943648
 H         2.282725        -2.105453         0.295393
