19
Iteration:   277
 C         2.611918         2.250552         0.842340
 C         2.473747         0.856653         1.157733
 C         2.768436         0.402728         2.562766
 C         1.917831        -0.882667         2.461210
 O         0.577587        -0.551980         2.192999
 C         1.044061        -0.123912         0.903160
 C         0.018892         0.239771        -0.171922
 C         2.256887        -1.077665         0.959630
 O         3.200881        -0.136478         0.323879
 H         1.918278         2.826824         1.497808
 H         3.723746         2.569322         1.050093
 H         2.397278         2.467396        -0.224650
 H         3.792662         0.075169         2.689009
 H         2.597144         1.166279         3.236612
 H         2.019061        -1.669775         3.155635
 H        -0.406320        -0.551619        -0.744461
 H        -0.791664         0.741317         0.202739
 H         0.442878         1.000148        -0.925080
 H         2.312838        -2.159279         0.553264
