19
Iteration:  1266
 C         2.495977         2.333569         0.723570
 C         2.410801         0.853401         1.146528
 C         2.656601         0.302083         2.656447
 C         1.993047        -1.004882         2.424359
 O         0.607864        -0.490645         2.170194
 C         1.080573        -0.118366         0.833663
 C         0.044301         0.283453        -0.120102
 C         2.324147        -1.075203         0.891654
 O         3.277785        -0.126368         0.425906
 H         2.115823         2.795843         1.598654
 H         3.532636         2.661267         0.750884
 H         1.985600         2.581090        -0.188234
 H         3.837389         0.205934         2.802302
 H         2.153082         0.842767         3.429141
 H         2.058840        -1.730753         3.183635
 H        -0.967719        -0.052410         0.220334
 H        -0.020758         1.356183        -0.042884
 H         0.127849        -0.247979        -1.102773
 H         2.510482        -1.991044         0.474636
