19
Iteration:  3408charge 0 multiplicity 1
 C         1.539548         2.525724         1.502641
 C         1.778897         0.997385         1.644754
 C         1.599589         0.023471         2.843764
 C         2.115291        -1.189535         2.144884
 O         1.063042        -1.378509         1.109508
 C         1.514723        -0.216076         0.477930
 C         1.077676        -0.031082        -0.890447
 C         2.932357        -0.558481         0.956345
 O         3.244232         0.820918         1.411895
 H         0.899723         2.701012         0.633761
 H         1.038467         2.975052         2.352625
 H         2.525733         3.044780         1.443792
 H         2.058293         0.538685         3.750615
 H         0.577011        -0.071471         3.026002
 H         2.346406        -2.099976         2.742764
 H         0.504693        -0.992472        -1.007103
 H         0.418664         0.772546        -1.072684
 H         1.808139        -0.003986        -1.650783
 H         3.794372        -1.116607         0.617742
