19
Iteration:  1975charge 0 multiplicity 1
 C         2.492950         2.360608         0.948042
 C         2.407291         0.959937         1.291273
 C         2.496706         0.412078         2.728106
 C         1.995902        -0.998453         2.441822
 O         0.618980        -0.787504         2.041414
 C         1.059268        -0.146073         0.854340
 C         0.176343         0.079356        -0.353731
 C         2.400545        -0.998307         0.822860
 O         3.232579         0.111658         0.464753
 H         1.571684         2.528483         0.350846
 H         2.776002         2.968891         1.804714
 H         3.377860         2.477142         0.358268
 H         3.520624         0.452205         3.022908
 H         1.835147         1.014474         3.397074
 H         2.149880        -1.869926         3.063224
 H        -0.279084         1.083139        -0.309733
 H         0.780128         0.077224        -1.221709
 H        -0.702958        -0.578603        -0.331155
 H         2.564363        -1.931365         0.314490
