19
Iteration:  4608charge 0 multiplicity 1
 C         1.155209         2.264241         1.430844
 C         1.926207         0.966844         1.623117
 C         1.788906         0.129112         2.927034
 C         2.082714        -1.163273         2.157232
 O         1.010524        -1.379720         1.186266
 C         1.606708        -0.192965         0.500133
 C         0.911595         0.154632        -0.888076
 C         3.083165        -0.539288         0.936629
 O         3.387519         0.785953         1.351128
 H         0.204083         2.276611         1.964932
 H         1.738482         3.038893         2.002124
 H         1.062803         2.616452         0.325380
 H         2.579423         0.263453         3.707040
 H         0.777178        -0.023977         3.331378
 H         2.403063        -2.181432         2.470432
 H         0.954141         1.233933        -1.263225
 H         1.230386        -0.527165        -1.667391
 H        -0.123785        -0.085417        -0.704250
 H         3.747530        -1.098633         0.332588
