19
Iteration:  1437charge 0 multiplicity 1
 C         2.602669         2.314974         0.603053
 C         2.421418         0.888849         1.251901
 C         2.658264         0.409240         2.697521
 C         2.034183        -1.044179         2.385751
 O         0.535444        -0.590853         2.187489
 C         1.127300        -0.069174         0.954646
 C         0.158669         0.259180        -0.131767
 C         2.226864        -1.071308         0.878323
 O         3.186823        -0.112854         0.446624
 H         2.432579         3.194707         1.236940
 H         3.490583         2.378656        -0.000933
 H         1.859027         2.384035        -0.300354
 H         3.563034         0.266955         3.163054
 H         1.947844         0.940488         3.325157
 H         2.287694        -1.970208         2.807885
 H        -0.216744        -0.461191        -0.776754
 H        -0.730871         0.590766         0.335909
 H         0.409701         1.214299        -0.564288
 H         2.215562        -2.094299         0.302940
