19
Iteration:  2832charge 0 multiplicity 1
 C         1.740282         2.352170         1.331442
 C         2.094906         0.946729         1.538741
 C         2.089503         0.248322         2.877182
 C         2.081855        -1.163858         2.228731
 O         0.705652        -1.044660         1.539743
 C         1.406334        -0.165960         0.651756
 C         0.668928         0.006814        -0.748645
 C         2.748123        -0.764884         0.851028
 O         3.388102         0.580217         0.984957
 H         1.592357         2.435512         0.173424
 H         0.676035         2.519549         1.613091
 H         2.422865         3.104071         1.793231
 H         3.037172         0.551958         3.367064
 H         1.157320         0.439808         3.529633
 H         2.392404        -2.028729         2.809392
 H        -0.149280        -0.722693        -0.782462
 H         0.328564         1.016148        -1.090885
 H         1.336206        -0.461798        -1.552869
 H         3.327741        -1.487700         0.324671
