19
Iteration:  2054charge 0 multiplicity 1
 C         2.240505         2.376303         0.914299
 C         2.284509         0.911088         1.303216
 C         2.530786         0.360061         2.652530
 C         1.978701        -1.011853         2.344150
 O         0.692554        -0.699413         1.950963
 C         1.150283        -0.130331         0.802719
 C         0.164742         0.220408        -0.223680
 C         2.490362        -1.097649         0.792495
 O         3.373747         0.042531         0.646146
 H         1.192698         2.730452         0.758159
 H         2.431202         3.081680         1.664545
 H         2.892609         2.468786         0.051207
 H         3.511728         0.557679         2.879258
 H         1.897858         0.779004         3.541083
 H         2.012063        -1.865670         3.064523
 H         0.818808         0.079973        -1.106038
 H        -0.626158        -0.578077        -0.152442
 H        -0.273868         1.166845        -0.051536
 H         2.581576        -2.010061         0.108095
