19
Iteration:  1356charge 0 multiplicity 1
 C         2.620290         2.259412         0.767375
 C         2.482204         0.883365         1.196877
 C         2.766913         0.432689         2.582660
 C         1.979499        -0.958047         2.391614
 O         0.583438        -0.595635         2.237875
 C         1.072941         0.009389         0.938957
 C         0.056228         0.205788        -0.149511
 C         2.126528        -1.044805         0.832514
 O         3.246650        -0.152518         0.397382
 H         1.635768         2.758107         0.825230
 H         3.229263         2.848501         1.494847
 H         2.842660         2.368111        -0.245188
 H         3.840526         0.404325         2.954935
 H         2.059033         0.930575         3.386552
 H         2.188529        -1.822954         3.140556
 H        -0.070101        -0.784104        -0.722767
 H        -0.967067         0.451795         0.267491
 H         0.252633         0.789065        -1.044422
 H         2.022378        -1.987786         0.394875
