19
Iteration:  2027
 C         2.294778         2.344387         0.929374
 C         2.422514         0.902004         1.258440
 C         2.598991         0.354551         2.785250
 C         1.989654        -0.982312         2.431296
 O         0.535238        -0.736949         2.014444
 C         1.155369        -0.092573         0.806616
 C         0.191688         0.125688        -0.345002
 C         2.405908        -1.067195         0.848987
 O         3.355133         0.120942         0.462227
 H         1.244336         2.692891         0.688621
 H         2.473760         2.964517         1.942481
 H         3.123436         2.619919         0.221265
 H         3.658810         0.610495         3.265784
 H         1.842539         0.819678         3.389721
 H         2.083752        -1.899794         2.972530
 H         0.503096         0.803181        -1.144604
 H        -0.044925        -0.856941        -0.781072
 H        -0.727646         0.495483         0.286132
 H         2.464162        -1.969560         0.287796
