19
Iteration:  2975charge 0 multiplicity 1
 C         1.677814         2.457518         1.461506
 C         1.955319         0.969019         1.477521
 C         1.859843         0.257971         2.812608
 C         2.146721        -1.161837         2.255290
 O         0.824640        -1.234298         1.495784
 C         1.369687        -0.179877         0.593013
 C         0.814548         0.019758        -0.773797
 C         2.853698        -0.749410         0.901801
 O         3.383037         0.590456         0.987300
 H         1.614711         2.878314         2.519744
 H         2.340554         3.098112         0.828898
 H         0.674936         2.578122         0.881266
 H         2.744213         0.623798         3.490157
 H         0.908717         0.217350         3.287641
 H         2.229538        -1.966245         2.986402
 H         1.623023        -0.013525        -1.557720
 H         0.058407        -0.703103        -1.028072
 H         0.518747         1.056288        -0.770323
 H         3.415016        -1.388122         0.234185
