19
Iteration:   283
 C         2.678320         2.302740         0.796267
 C         2.447496         0.853324         1.180068
 C         2.754089         0.412631         2.552437
 C         1.957725        -0.889843         2.491874
 O         0.579053        -0.611730         2.195527
 C         1.052933        -0.111736         0.892041
 C         0.038504         0.268306        -0.211313
 C         2.252246        -1.104950         0.954189
 O         3.128859        -0.124226         0.351033
 H         1.890199         2.768480         1.392284
 H         3.714531         2.472453         0.882890
 H         2.420738         2.702125        -0.190638
 H         3.803332         0.044421         2.628153
 H         2.590535         1.175382         3.422440
 H         2.033635        -1.682242         3.298979
 H        -0.314547        -0.572321        -0.874140
 H        -0.886341         0.707869         0.432503
 H         0.544367         0.934381        -0.856463
 H         2.262443        -2.105507         0.591065
