19
Iteration:  1721charge 0 multiplicity 1
 C         2.459396         2.316881         0.759198
 C         2.333121         0.875612         1.202478
 C         2.635274         0.429851         2.635190
 C         2.043195        -1.037951         2.404848
 O         0.609868        -0.528837         2.073803
 C         1.127416        -0.141140         0.862406
 C         0.104515         0.242192        -0.103956
 C         2.298180        -1.125613         0.799385
 O         3.296561        -0.095284         0.544490
 H         2.627630         2.886169         1.640077
 H         3.276015         2.571484         0.110372
 H         1.513929         2.710060         0.281852
 H         3.706276         0.553413         2.844966
 H         2.122064         0.816510         3.501872
 H         2.048655        -1.942163         3.154562
 H         0.153914         1.331924        -0.207383
 H         0.234371        -0.346706        -1.001095
 H        -0.953876         0.143882         0.319420
 H         2.326245        -2.021376         0.087902
