19
Iteration:  3357
 C         1.244940         2.344403         1.457977
 C         1.856466         0.962845         1.579224
 C         1.690786         0.146445         2.845656
 C         2.053421        -1.181156         2.183532
 O         0.952551        -1.289631         1.181796
 C         1.644274        -0.141505         0.513851
 C         1.108489         0.107008        -0.848678
 C         3.023330        -0.671661         1.034071
 O         3.385679         0.710810         1.286590
 H         1.188295         2.800067         0.452996
 H         0.124881         2.198641         1.609710
 H         1.585985         2.945508         2.340620
 H         2.206580         0.684418         3.692854
 H         0.659184         0.067506         3.263202
 H         2.350949        -2.102126         2.671747
 H         0.269198        -0.645023        -1.057638
 H         0.661682         1.101965        -1.054657
 H         1.903732        -0.022376        -1.601254
 H         3.771451        -1.122470         0.338765
