19
Iteration:  2424charge 0 multiplicity 1
 C         2.158237         2.466450         1.121690
 C         2.240842         0.972580         1.477487
 C         2.297948         0.372711         2.848582
 C         2.062985        -1.075572         2.305980
 O         0.681763        -1.059147         1.700725
 C         1.180938        -0.217202         0.734264
 C         0.318002        -0.002830        -0.529635
 C         2.593406        -0.797969         0.790160
 O         3.342420         0.349312         0.775830
 H         2.455676         3.081958         1.916551
 H         2.877761         2.586131         0.342853
 H         1.229047         2.850734         0.661417
 H         3.270203         0.328207         3.407139
 H         1.429590         0.522178         3.462283
 H         2.077256        -1.804923         3.134918
 H        -0.376396         0.859603        -0.392892
 H         1.141866         0.268304        -1.266353
 H        -0.237647        -0.851248        -0.858691
 H         3.091101        -1.663902         0.323290
