19
Iteration:   272charge 0 multiplicity 1
 C         2.567627         2.235744         0.872541
 C         2.479841         0.832624         1.124900
 C         2.782274         0.382150         2.580041
 C         1.916240        -0.871273         2.446808
 O         0.561844        -0.487186         2.186003
 C         1.047250        -0.123629         0.901988
 C         0.031867         0.222342        -0.147273
 C         2.244082        -1.080186         0.912764
 O         3.259272        -0.155682         0.321484
 H         2.044353         2.909840         1.547605
 H         3.490649         2.662497         1.177000
 H         2.376369         2.242906        -0.202257
 H         3.867748         0.161709         2.697933
 H         2.442960         1.236206         3.316541
 H         2.053394        -1.747362         3.151351
 H        -0.448796        -0.683641        -0.622512
 H        -0.916974         0.910255         0.213914
 H         0.344747         0.916432        -0.879745
 H         2.343684        -2.060150         0.516029
