19
Iteration:  1554charge 0 multiplicity 1
 C         2.616135         2.441795         0.694171
 C         2.395390         0.977469         1.179941
 C         2.699333         0.357763         2.659221
 C         1.969678        -1.001573         2.474590
 O         0.545005        -0.724750         2.233866
 C         1.080274        -0.053980         0.952779
 C         0.092176         0.203907        -0.163166
 C         2.225830        -1.065316         0.835727
 O         3.254476        -0.126731         0.389405
 H         1.614419         2.817226         0.567046
 H         3.309375         3.035835         1.193861
 H         3.051105         2.276864        -0.248956
 H         3.702813         0.203654         2.736752
 H         2.355053         0.901649         3.615928
 H         2.156567        -1.775802         3.152108
 H        -0.898567         0.224848         0.228292
 H         0.098933         1.264730        -0.549448
 H         0.238925        -0.241436        -1.099634
 H         2.198113        -1.972991         0.179187
