19
Iteration:   948charge 0 multiplicity 1
 C         2.592745         2.280543         0.633061
 C         2.489842         0.866750         1.180945
 C         2.768719         0.365280         2.721585
 C         1.982283        -0.984688         2.391945
 O         0.582932        -0.552949         2.137041
 C         1.071372        -0.017667         0.848604
 C        -0.104125         0.273131        -0.109589
 C         2.267195        -1.074407         0.882373
 O         3.265683        -0.124753         0.509169
 H         1.894359         2.805862         1.366527
 H         3.656654         2.622678         0.628633
 H         2.542639         2.170644        -0.480817
 H         3.834193         0.177292         2.787923
 H         2.414189         0.977211         3.509835
 H         1.915564        -1.980871         3.024517
 H        -0.337411        -0.664110        -0.569142
 H        -1.009994         0.507841         0.531410
 H         0.107813         1.173371        -0.756907
 H         2.157325        -2.013008         0.374045
