19
Iteration:    53
 C         2.625021         2.191554         0.630286
 C         2.380895         0.816224         1.160789
 C         2.749095         0.400567         2.670850
 C         1.999053        -0.906245         2.411091
 O         0.607234        -0.567931         2.154489
 C         1.018844        -0.092162         0.883471
 C        -0.053236         0.372210        -0.041690
 C         2.251661        -1.140780         0.870504
 O         3.272616        -0.123092         0.478210
 H         1.763999         2.915097         0.919923
 H         3.645548         2.467991         1.045476
 H         2.672412         2.393947        -0.531926
 H         3.924054         0.212891         2.553152
 H         2.368876         0.940826         3.561093
 H         2.124898        -1.665913         3.124278
 H        -0.244094        -0.229460        -0.875055
 H        -1.034999         0.612011         0.483670
 H         0.275124         1.220121        -0.528932
 H         2.335980        -2.073947         0.445323
