19
Iteration:  4027
 C         1.555783         2.468204         1.465646
 C         1.866317         0.958628         1.554199
 C         1.667801         0.120756         2.853716
 C         2.120506        -1.184177         2.115478
 O         0.897141        -1.356618         1.217908
 C         1.517685        -0.199971         0.544066
 C         0.942612         0.033734        -0.828140
 C         2.966629        -0.561081         0.977480
 O         3.366104         0.749743         1.337273
 H         0.600284         2.622696         0.914607
 H         1.498580         2.949200         2.443497
 H         2.357225         2.739423         0.799374
 H         2.399631         0.391620         3.687434
 H         0.618364         0.102262         3.140070
 H         2.089538        -2.135619         2.601996
 H         0.675403        -1.026755        -1.245355
 H         0.040015         0.683308        -0.869849
 H         1.684476         0.400015        -1.656759
 H         3.762472        -1.205455         0.454869
