19
Iteration:  1832charge 0 multiplicity 1
 C         2.470523         2.434100         0.879046
 C         2.384238         0.864577         1.178978
 C         2.625936         0.370683         2.662706
 C         1.928509        -0.960854         2.443207
 O         0.550979        -0.646169         2.035915
 C         1.193611        -0.071388         0.899274
 C         0.143326         0.082655        -0.179922
 C         2.291579        -1.049552         0.835404
 O         3.330180        -0.045910         0.472711
 H         3.350693         2.675228         0.287400
 H         1.541541         2.760374         0.315700
 H         2.435494         3.087776         1.774085
 H         3.756190         0.301215         2.820701
 H         2.083006         0.965613         3.334443
 H         1.937783        -1.895653         3.006751
 H         0.363741        -0.556082        -1.091374
 H        -0.778725        -0.197096         0.326999
 H         0.019117         1.244201        -0.456935
 H         2.311086        -1.919071         0.259189
