19
Iteration:  3202
 C         1.442646         2.350089         1.387734
 C         1.816505         0.937617         1.541170
 C         1.733791         0.174022         2.910745
 C         2.179416        -1.218350         2.169083
 O         0.930989        -1.372737         1.379389
 C         1.482882        -0.180593         0.577662
 C         1.011681         0.108226        -0.842965
 C         2.931773        -0.572015         0.934199
 O         3.339346         0.748735         1.182517
 H         0.486812         2.572511         1.886091
 H         2.293803         2.952003         1.732107
 H         1.434522         2.703598         0.320731
 H         2.400505         0.383196         3.833640
 H         0.704208         0.203499         3.147798
 H         2.429997        -2.174833         2.652791
 H         1.957768         0.179079        -1.465197
 H         0.242456        -0.539199        -1.257447
 H         0.578604         1.138098        -0.928873
 H         3.545194        -1.183307         0.298926
