19
Iteration:   257charge 0 multiplicity 1
 C         2.515679         2.283921         0.835288
 C         2.442269         0.805561         1.160152
 C         2.731183         0.368207         2.618942
 C         2.019052        -0.948627         2.436892
 O         0.599856        -0.356675         2.165141
 C         1.146307        -0.032732         0.861662
 C         0.015216         0.208367        -0.092578
 C         2.207435        -1.147301         0.761202
 O         3.255392        -0.211523         0.422315
 H         1.617341         2.632726         1.423321
 H         3.529852         2.698107         1.117544
 H         2.311773         2.659808        -0.190932
 H         3.838109         0.347371         2.818679
 H         2.267929         0.898687         3.380641
 H         1.969596        -1.681142         3.196413
 H        -0.470352        -0.750961        -0.293124
 H        -0.650465         0.795011         0.373936
 H         0.394641         0.609680        -1.111644
 H         2.153061        -2.126409         0.244907
