19
Iteration:  2502charge 0 multiplicity 1
 C         1.936344         2.475102         1.199889
 C         2.129319         0.922921         1.403463
 C         2.288931         0.294158         2.803835
 C         2.024638        -1.125296         2.305781
 O         0.650333        -0.925059         1.693607
 C         1.327638        -0.216289         0.718616
 C         0.499488         0.062980        -0.503345
 C         2.706992        -0.886671         0.844328
 O         3.355718         0.363037         0.739922
 H         2.777438         2.947975         0.788396
 H         1.054341         2.751871         0.618921
 H         1.828512         3.028313         2.164120
 H         3.360915         0.369619         3.241066
 H         1.544503         0.691234         3.445412
 H         2.022988        -2.002102         2.979786
 H         1.161603        -0.009032        -1.416241
 H        -0.168778        -0.844180        -0.565548
 H        -0.148934         0.940257        -0.432414
 H         3.086904        -1.764114         0.303528
