19
Iteration:   415charge 0 multiplicity 1
 C         2.537377         2.313998         0.681893
 C         2.390914         0.878713         1.186509
 C         2.773111         0.328869         2.594403
 C         1.997377        -1.052302         2.447094
 O         0.562284        -0.584962         2.267448
 C         1.104017         0.007624         0.972261
 C         0.215241         0.242254        -0.207195
 C         2.157348        -1.086086         0.895073
 O         3.142822        -0.093191         0.392123
 H         1.634883         3.059143         1.030945
 H         3.335016         2.855040         1.252867
 H         2.802038         2.368687        -0.416071
 H         3.857094         0.342630         2.759769
 H         2.254219         0.799026         3.508196
 H         2.055930        -1.812661         3.175326
 H        -0.637728        -0.434770        -0.238228
 H        -0.057989         1.386896        -0.277664
 H         0.907430         0.084747        -1.044594
 H         2.023162        -1.960557         0.201751
