19
Iteration:    68charge 0 multiplicity 1
 C         2.684200         2.296462         0.663800
 C         2.375968         0.876609         1.123760
 C         2.659791         0.392188         2.522401
 C         2.014354        -0.998945         2.487302
 O         0.556721        -0.603163         2.290311
 C         1.072631        -0.164353         0.951378
 C         0.052246         0.410110        -0.111283
 C         2.281201        -1.093292         0.885575
 O         3.170628        -0.149701         0.386535
 H         1.971056         2.996736         1.029700
 H         3.669193         2.614408         1.003202
 H         2.692319         2.219215        -0.381080
 H         3.640838         0.367338         2.734870
 H         2.211726         1.106619         3.247133
 H         2.165803        -1.868128         3.252195
 H        -0.163667        -0.324196        -0.934356
 H        -0.817535         0.481863         0.395091
 H         0.408752         1.408439        -0.496481
 H         2.459499        -2.149548         0.389124
