19
Iteration:  1076
 C         2.599002         2.244592         0.874721
 C         2.411726         0.838208         1.155895
 C         2.660133         0.420748         2.575976
 C         2.070194        -0.906695         2.410419
 O         0.623492        -0.532653         2.199574
 C         1.072245        -0.051291         0.919851
 C         0.092859         0.243077        -0.185367
 C         2.169594        -1.132054         0.855711
 O         3.208355        -0.132409         0.349440
 H         1.768463         2.801535         1.401869
 H         3.471835         2.618754         1.331982
 H         2.511067         2.561140        -0.191907
 H         3.688245         0.379499         2.889917
 H         2.037025         1.064842         3.411576
 H         2.306248        -1.763004         3.165767
 H        -0.700700        -0.456596         0.124467
 H        -0.332031         1.267499        -0.009218
 H         0.480652        -0.054805        -1.173206
 H         2.118676        -2.218695         0.313105
