19
Iteration:  2703
 C         1.778268         2.364105         1.278774
 C         2.108321         0.931875         1.445322
 C         2.170548         0.324737         2.878250
 C         2.020760        -1.064566         2.288460
 O         0.699063        -1.072955         1.585141
 C         1.421023        -0.232242         0.628502
 C         0.639168         0.119337        -0.580353
 C         2.728659        -0.864039         0.834684
 O         3.379141         0.440598         0.862245
 H         1.554606         2.910901         2.220637
 H         2.492964         2.856804         0.654427
 H         0.890215         2.503214         0.631638
 H         3.069910         0.654564         3.406920
 H         1.291895         0.720188         3.435101
 H         2.145823        -2.018768         2.819424
 H         0.758020         1.133599        -1.011621
 H         0.857850        -0.554107        -1.432576
 H        -0.446722         0.040786        -0.232582
 H         3.314939        -1.644141         0.402920
