19
Iteration:  1208charge 0 multiplicity 1
 C         2.689103         2.366286         0.815183
 C         2.436208         0.863103         1.175066
 C         2.635771         0.463440         2.607137
 C         2.047266        -1.018102         2.380610
 O         0.584921        -0.570599         2.243563
 C         1.008757        -0.152330         0.924093
 C         0.123704         0.200153        -0.143995
 C         2.174732        -1.113334         0.865252
 O         3.138674        -0.106029         0.348411
 H         2.425690         3.042225         1.608754
 H         3.711776         2.436091         0.620368
 H         2.224457         2.821204        -0.082417
 H         3.673028         0.616238         2.860515
 H         1.995809         0.983736         3.353841
 H         2.254964        -1.765103         3.172018
 H        -0.420777        -0.655490        -0.428117
 H        -0.504545         1.108148        -0.118099
 H         0.791619         0.513261        -0.964102
 H         2.441681        -2.152107         0.367336
