19
Iteration:  1470charge 0 multiplicity 1
 C         2.554349         2.278730         0.755488
 C         2.334709         0.880771         1.210872
 C         2.702181         0.461203         2.640123
 C         2.002534        -0.931432         2.470686
 O         0.620174        -0.606638         2.161990
 C         1.079498        -0.123862         0.868510
 C         0.019919         0.303332        -0.186161
 C         2.275502        -1.108137         0.827306
 O         3.256168        -0.161117         0.461266
 H         2.507459         3.034733         1.544457
 H         3.595912         2.299500         0.414605
 H         1.780832         2.591393        -0.039316
 H         3.728563         0.243276         2.883880
 H         2.258907         1.071702         3.416812
 H         2.198391        -1.803859         3.064557
 H        -0.597580        -0.461063        -0.575961
 H        -0.445066         1.090661         0.349308
 H         0.601429         0.683702        -1.073628
 H         2.290105        -2.159314         0.344022
