19
Iteration:    74
 C         2.718601         2.310759         0.704231
 C         2.376635         0.886875         1.164616
 C         2.634284         0.414606         2.527829
 C         2.003337        -0.995411         2.488055
 O         0.593478        -0.629242         2.297737
 C         1.100497        -0.122525         0.952313
 C         0.127237         0.372952        -0.113415
 C         2.222660        -1.143004         0.881082
 O         3.121443        -0.160881         0.330625
 H         1.841956         2.998109         0.977973
 H         3.769196         2.618574         0.948489
 H         2.568013         2.354054        -0.458322
 H         3.806613         0.537305         2.804747
 H         1.939012         1.054773         3.111326
 H         2.202676        -1.673598         3.255522
 H        -0.058816        -0.247110        -0.978529
 H        -0.912296         0.476917         0.465513
 H         0.444490         1.331978        -0.547149
 H         2.323695        -2.072045         0.454976
