19
Iteration:  3500
 C         1.277847         2.253030         1.352373
 C         1.964551         0.917949         1.639598
 C         1.699141         0.119437         2.873142
 C         2.041238        -1.212622         2.152288
 O         0.866934        -1.219570         1.254450
 C         1.604409        -0.140959         0.509778
 C         1.182225         0.184123        -0.947296
 C         2.952528        -0.652703         1.002361
 O         3.361385         0.744955         1.381134
 H         0.276360         1.973903         1.798563
 H         1.682599         3.169564         1.913158
 H         1.173801         2.643643         0.329848
 H         2.481219         0.480368         3.507529
 H         0.701690         0.052304         3.457332
 H         2.166016        -2.232637         2.458335
 H         1.829087        -0.389185        -1.565973
 H         0.137586        -0.223637        -0.947044
 H         1.080580         1.238091        -1.330378
 H         3.743295        -1.291119         0.566260
