19
Iteration:  2007charge 0 multiplicity 1
 C         2.426720         2.412473         0.992621
 C         2.283339         0.911518         1.264589
 C         2.474913         0.450748         2.632138
 C         2.053132        -1.010025         2.383297
 O         0.661502        -0.745919         2.067287
 C         1.101072        -0.156905         0.835969
 C         0.242861         0.101814        -0.351420
 C         2.387446        -0.990099         0.779381
 O         3.218088         0.006590         0.562812
 H         1.479732         2.913732         0.603099
 H         2.537315         3.138841         1.885043
 H         3.232605         2.554986         0.263329
 H         3.592722         0.334071         2.774876
 H         2.071827         0.873752         3.554280
 H         2.178654        -1.819778         3.097899
 H         0.554905         1.098507        -0.645331
 H         0.467032        -0.593828        -1.093438
 H        -0.817246         0.081549        -0.012704
 H         2.560416        -1.952788         0.391838
