19
Iteration:  2696
 C         1.753657         2.388324         1.281792
 C         2.157451         0.972286         1.429632
 C         2.108853         0.340996         2.880482
 C         2.037462        -1.117506         2.265109
 O         0.704522        -1.059002         1.599453
 C         1.389203        -0.275410         0.633145
 C         0.640818         0.138868        -0.590320
 C         2.742922        -0.867358         0.890094
 O         3.388185         0.437443         0.827488
 H         1.574015         2.819328         2.233429
 H         2.572389         3.027720         0.831130
 H         0.877604         2.457482         0.542859
 H         3.127665         0.585950         3.300167
 H         1.364921         0.688418         3.533009
 H         2.253380        -1.969513         2.947987
 H         0.733072         1.213448        -0.858708
 H         0.848901        -0.490990        -1.437774
 H        -0.331174        -0.127306        -0.413850
 H         3.112051        -1.784709         0.346404
