19
Iteration:  2714charge 0 multiplicity 1
 C         1.803784         2.374873         1.210825
 C         2.066793         0.902655         1.491258
 C         2.195880         0.307126         2.823505
 C         1.998052        -1.099509         2.317661
 O         0.735260        -1.072278         1.578875
 C         1.325078        -0.144436         0.626918
 C         0.566485         0.066704        -0.625306
 C         2.805927        -0.797939         0.811014
 O         3.405710         0.460153         0.953396
 H         1.915314         3.036531         2.121619
 H         2.597393         2.652280         0.568491
 H         0.764642         2.447251         0.932610
 H         3.081165         0.464877         3.444443
 H         1.226000         0.326915         3.386034
 H         2.075328        -2.000831         2.962765
 H         1.099358         0.922073        -1.116268
 H         0.518943        -0.879360        -1.230507
 H        -0.497217         0.405241        -0.330845
 H         3.400456        -1.453715         0.211817
