19
Iteration:  1616
 C         2.505669         2.323792         0.769363
 C         2.395536         0.882959         1.160393
 C         2.705972         0.402473         2.644678
 C         1.983275        -0.958231         2.385338
 O         0.604299        -0.611249         2.096480
 C         1.139101        -0.021395         0.867418
 C         0.014180         0.280179        -0.075753
 C         2.258183        -1.099168         0.882614
 O         3.296677        -0.213594         0.471641
 H         1.426952         2.739174         0.572341
 H         3.048788         3.052420         1.511716
 H         3.010884         2.450632        -0.219205
 H         3.877380         0.301269         2.661651
 H         2.285917         1.072174         3.378304
 H         2.035262        -1.798188         3.088532
 H        -0.952239         0.360622         0.558526
 H         0.150411         1.310480        -0.481654
 H        -0.037030        -0.558223        -0.841548
 H         2.285711        -2.029310         0.412498
