19
Iteration:  1888charge 0 multiplicity 1
 C         2.449011         2.378332         0.803163
 C         2.322265         0.885273         1.221382
 C         2.474705         0.402523         2.660188
 C         2.010944        -0.965045         2.380581
 O         0.630770        -0.802619         2.086484
 C         1.184798        -0.034194         0.946186
 C         0.231455         0.256591        -0.222376
 C         2.334987        -1.090069         0.857276
 O         3.255124        -0.036111         0.485953
 H         2.702887         2.568048        -0.277618
 H         1.457940         2.878448         0.955008
 H         3.138025         2.902474         1.454469
 H         3.531814         0.448221         2.944786
 H         1.833524         0.886357         3.451888
 H         2.178835        -1.673063         3.157599
 H        -0.522003        -0.590320        -0.330510
 H        -0.367955         1.194663        -0.035863
 H         0.844194         0.228862        -1.206069
 H         2.499716        -1.993900         0.311832
