19
Iteration:  1687
 C         2.558921         2.261974         0.854287
 C         2.427483         0.904720         1.234699
 C         2.702022         0.475623         2.671316
 C         1.996603        -0.895962         2.460651
 O         0.550081        -0.681341         2.104319
 C         1.070422        -0.109794         0.931642
 C         0.035849         0.206978        -0.176499
 C         2.297252        -1.043813         0.811327
 O         3.252302        -0.105300         0.372207
 H         2.251288         2.840160         1.715098
 H         3.560210         2.498712         0.523620
 H         1.866073         2.537488         0.006327
 H         3.753169         0.443623         2.754763
 H         2.184587         1.123876         3.404586
 H         2.254999        -1.789203         3.131246
 H        -0.191952         1.272689        -0.253777
 H         0.553951         0.108773        -1.164030
 H        -0.821581        -0.513590        -0.167114
 H         2.253917        -2.098164         0.316773
