19
Iteration:  4768charge 0 multiplicity 1
 C         1.203803         2.384670         1.469823
 C         1.783135         0.899353         1.562880
 C         1.759329         0.033611         2.890419
 C         2.319168        -1.205784         2.134051
 O         1.029418        -1.503943         1.234195
 C         1.632049        -0.286379         0.527599
 C         0.959204         0.238275        -0.788303
 C         3.046694        -0.508008         0.954466
 O         3.214764         0.908252         1.241004
 H         0.237932         2.293424         2.046598
 H         2.091571         2.951677         1.939326
 H         0.937147         2.650770         0.450942
 H         2.498503         0.514701         3.547149
 H         0.734336        -0.066157         3.319112
 H         2.521391        -2.242626         2.471246
 H         0.178308        -0.533417        -1.129858
 H         0.573307         1.248716        -0.683624
 H         1.639191         0.357615        -1.612280
 H         3.829852        -0.873981         0.374746
