19
Iteration:  3158charge 0 multiplicity 1
 C         1.309243         2.339908         1.464087
 C         1.974022         0.918876         1.523312
 C         1.911354         0.160271         2.884904
 C         1.958306        -1.186940         2.282023
 O         0.888448        -1.234524         1.315045
 C         1.540571        -0.199297         0.487050
 C         0.920167         0.077277        -0.875556
 C         2.931221        -0.593694         0.977267
 O         3.444100         0.694643         1.147809
 H         0.391705         2.330953         0.842028
 H         1.198882         2.848611         2.410117
 H         2.066700         3.066428         1.124532
 H         2.825233         0.630772         3.421690
 H         1.073697         0.356984         3.519259
 H         2.380447        -2.110574         2.710262
 H         1.205677         1.032277        -1.397720
 H         1.206704        -0.847507        -1.413686
 H        -0.211701        -0.080735        -0.791717
 H         3.590200        -1.343638         0.588076
