19
Iteration:   594charge 0 multiplicity 1
 C         2.470617         2.276690         0.925955
 C         2.384583         0.800515         1.085594
 C         2.723646         0.402329         2.577357
 C         2.001026        -0.925472         2.529181
 O         0.598047        -0.441487         2.140003
 C         1.145650        -0.082021         0.805974
 C         0.127413         0.282533        -0.144824
 C         2.257492        -1.160555         0.870062
 O         3.206246        -0.180330         0.369804
 H         1.609299         2.743144         1.300190
 H         3.230991         2.742351         1.616637
 H         2.618827         2.567659        -0.139616
 H         3.758903         0.174943         2.538710
 H         2.367434         1.137134         3.319502
 H         2.166575        -1.675539         3.460274
 H        -0.749167        -0.339584         0.219674
 H        -0.152315         1.277042        -0.229324
 H         0.215275        -0.061509        -1.220658
 H         2.307874        -2.306365         0.519731
