19
Iteration:  3594charge 0 multiplicity 1
 C         1.420035         2.390083         1.621023
 C         1.846140         1.034599         1.582518
 C         1.687700         0.144192         2.833358
 C         2.037044        -1.194847         2.097343
 O         0.924784        -1.309859         1.107867
 C         1.586511        -0.224614         0.460195
 C         1.039198        -0.098802        -1.005774
 C         2.951100        -0.568749         1.047916
 O         3.373202         0.841841         1.386491
 H         0.385070         2.515149         1.850451
 H         2.077653         2.795625         2.399145
 H         1.644515         3.110526         0.832269
 H         2.410814         0.406461         3.703250
 H         0.723086         0.092378         3.252511
 H         2.271388        -1.989048         2.852337
 H         0.928630        -1.241969        -1.103144
 H         0.126104         0.467216        -0.885000
 H         1.666394         0.301493        -1.828728
 H         3.770300        -1.303425         0.708829
