19
Iteration:  2170
 C         2.262826         2.423950         1.111331
 C         2.302993         0.908462         1.268436
 C         2.419817         0.377263         2.645050
 C         1.977950        -0.999124         2.325869
 O         0.615643        -0.776656         1.908008
 C         1.273430        -0.117832         0.830759
 C         0.253491         0.049325        -0.273080
 C         2.483233        -0.993370         0.853900
 O         3.309575         0.149669         0.557761
 H         2.989549         2.841326         1.858355
 H         2.848657         2.606096         0.150852
 H         1.257570         2.755833         0.976966
 H         3.463372         0.335061         3.039622
 H         1.691479         0.907107         3.353869
 H         2.044440        -1.896796         2.972480
 H        -0.738925        -0.309349         0.059467
 H         0.098085         0.932618        -0.883820
 H         0.584853        -0.578652        -1.174661
 H         2.843890        -1.903188         0.384905
