19
Iteration:   228charge 0 multiplicity 1
 C         2.495232         2.301998         0.723919
 C         2.458663         0.862946         1.195849
 C         2.743166         0.323078         2.625048
 C         2.020159        -0.980766         2.385653
 O         0.551653        -0.512407         2.214444
 C         1.107055        -0.028820         0.921887
 C         0.040926         0.290795        -0.087618
 C         2.215088        -1.101980         0.794506
 O         3.301265        -0.179165         0.429121
 H         1.656818         2.870290         1.156637
 H         3.356455         2.868149         1.078466
 H         2.469979         2.216169        -0.368666
 H         3.845919         0.314130         2.875025
 H         2.273230         0.968309         3.440781
 H         2.072316        -1.859550         3.065482
 H        -0.850310        -0.401619         0.006048
 H        -0.436373         1.396970        -0.227412
 H         0.410247         0.204938        -1.094760
 H         2.162704        -2.083912         0.403428
