19
Iteration:  3608charge 0 multiplicity 1
 C         1.367491         2.369881         1.575971
 C         1.882000         0.927899         1.589403
 C         1.736485         0.120665         2.884844
 C         1.977008        -1.156694         2.185780
 O         0.945264        -1.278873         1.150015
 C         1.578899        -0.167090         0.455118
 C         1.081420        -0.054674        -0.956403
 C         2.979649        -0.553502         0.997365
 O         3.347867         0.785198         1.361759
 H         0.243487         2.274191         1.551886
 H         1.640088         3.046031         2.458177
 H         1.703723         2.717217         0.600879
 H         2.596696         0.449732         3.447405
 H         0.763358         0.264233         3.511333
 H         2.140753        -2.136630         2.519779
 H         0.735661        -0.946877        -1.426519
 H         0.173393         0.551717        -1.211425
 H         1.950165         0.404017        -1.506948
 H         3.713979        -1.117049         0.422918
