19
Iteration:  3887
 C         1.686230         2.505376         1.664511
 C         1.756937         1.037401         1.586421
 C         1.571029         0.136772         2.900993
 C         2.044240        -1.125790         2.155577
 O         0.981900        -1.470735         1.237821
 C         1.557469        -0.216895         0.393555
 C         1.020673        -0.066072        -0.956151
 C         2.947312        -0.547462         0.981143
 O         3.277671         0.763286         1.202741
 H         0.588010         2.668178         1.924885
 H         2.205078         2.843678         2.614883
 H         1.927471         2.999463         0.726454
 H         2.330785         0.608320         3.615843
 H         0.571951         0.133456         3.338873
 H         2.277659        -2.010943         2.683497
 H         1.167852        -0.928596        -1.614322
 H         0.032740         0.270701        -0.898228
 H         1.670165         0.767815        -1.297477
 H         3.649431        -1.274424         0.475288
