19
Iteration:   984charge 0 multiplicity 1
 C         2.647284         2.231238         0.662562
 C         2.331012         0.816669         1.095248
 C         2.549670         0.508661         2.640722
 C         2.045906        -1.036112         2.424389
 O         0.630473        -0.646571         2.192249
 C         1.086939        -0.138234         0.953480
 C         0.142999         0.406398        -0.047102
 C         2.269043        -1.134585         0.869492
 O         3.162956        -0.103057         0.386318
 H         2.541509         3.003041         1.447517
 H         3.797171         2.288140         0.578673
 H         2.036754         2.800377        -0.029757
 H         3.633293         0.689425         3.052888
 H         1.862818         1.122092         3.197477
 H         2.127721        -1.782367         3.166402
 H        -0.523160        -0.407713        -0.483145
 H        -0.452793         1.127676         0.479301
 H         0.635194         0.835457        -0.953749
 H         2.335336        -2.103250         0.439891
