19
Iteration:  1593charge 0 multiplicity 1
 C         2.522818         2.274799         0.735342
 C         2.374765         0.797844         1.175944
 C         2.579197         0.388490         2.631862
 C         2.051746        -0.994155         2.405855
 O         0.642462        -0.484013         2.245560
 C         1.094490        -0.157894         0.820806
 C        -0.026928         0.354306        -0.113289
 C         2.354115        -1.178293         0.785575
 O         3.302640        -0.129039         0.458400
 H         1.498026         2.736195         0.528671
 H         2.958883         2.938329         1.618360
 H         3.173344         2.510106        -0.171366
 H         3.734176         0.517718         2.943181
 H         1.903601         0.928920         3.242786
 H         2.137502        -1.704769         3.296986
 H        -1.021500         0.465681         0.453381
 H         0.285560         1.389277        -0.292790
 H        -0.067287        -0.260333        -1.081807
 H         2.445524        -2.103063         0.234925
