19
Iteration:  1914charge 0 multiplicity 1
 C         2.385113         2.314502         0.852060
 C         2.416399         0.863980         1.282872
 C         2.568248         0.465791         2.759781
 C         2.005216        -0.936590         2.392117
 O         0.569902        -0.715868         2.004684
 C         1.129389        -0.233742         0.848962
 C         0.099378         0.219890        -0.275405
 C         2.405603        -1.091370         0.817060
 O         3.338562         0.024541         0.523299
 H         2.102617         2.579542        -0.175287
 H         1.684940         2.882631         1.463344
 H         3.459869         2.687021         0.923836
 H         3.613069         0.567442         3.094655
 H         1.888771         1.056269         3.503109
 H         2.033732        -1.780902         3.137351
 H        -0.952837         0.032435         0.108759
 H         0.126827         1.401898        -0.218526
 H         0.165234        -0.151865        -1.298519
 H         2.802393        -2.012446         0.222472
