19
Iteration:  1499charge 0 multiplicity 1
 C         2.571888         2.373897         0.853478
 C         2.440527         0.875197         1.104983
 C         2.691435         0.422793         2.582924
 C         1.951743        -0.915530         2.447980
 O         0.596882        -0.569064         2.131774
 C         1.115168        -0.062541         0.907601
 C         0.033021         0.179023        -0.114386
 C         2.278263        -1.153679         0.856364
 O         3.244641        -0.168273         0.390893
 H         2.056091         2.846502         1.705367
 H         3.592315         2.684338         0.917105
 H         2.096803         2.702274        -0.050064
 H         3.642214         0.241565         3.008318
 H         1.995350         1.108039         3.285877
 H         2.068783        -1.662150         3.177421
 H        -0.923444        -0.370734         0.000073
 H        -0.156812         1.322772        -0.032722
 H         0.452541        -0.132690        -1.055699
 H         2.297064        -2.138138         0.348698
