19
Iteration:  2647charge 0 multiplicity 1
 C         1.997219         2.404171         1.268494
 C         2.051139         0.984096         1.426903
 C         2.180233         0.233418         2.878321
 C         2.071210        -1.080777         2.269570
 O         0.723665        -1.043473         1.628352
 C         1.286922        -0.167401         0.699867
 C         0.562084        -0.068983        -0.633152
 C         2.683646        -0.776162         0.841982
 O         3.330562         0.496955         0.846548
 H         0.941598         2.730100         1.600766
 H         2.650476         2.964852         1.965533
 H         2.141755         2.576231         0.210320
 H         3.131620         0.578653         3.255825
 H         1.308605         0.511404         3.598037
 H         2.181797        -1.947069         2.901325
 H        -0.251011         0.626671        -0.419911
 H         1.218316         0.439221        -1.373874
 H         0.288644        -1.053387        -1.262660
 H         3.106951        -1.580298         0.240220
