19
Iteration:   245
 C         2.482440         2.319044         0.783446
 C         2.433479         0.868936         1.148816
 C         2.683897         0.349493         2.624421
 C         1.979033        -1.036569         2.355545
 O         0.746506        -0.371522         2.154576
 C         1.173553         0.004693         0.861038
 C         0.041968         0.217363        -0.082685
 C         2.168779        -1.127996         0.834596
 O         3.217165        -0.252628         0.492345
 H         1.647983         2.823215         1.372744
 H         3.378730         2.909613         1.204023
 H         2.319143         2.466114        -0.293084
 H         3.765063         0.326975         2.801024
 H         2.124556         0.831416         3.344941
 H         2.031605        -1.805417         3.080506
 H        -0.576009        -0.642497         0.007533
 H        -0.462835         0.995081         0.228377
 H         0.291824         0.423533        -1.214074
 H         2.078717        -2.043017         0.155707
