19
Iteration:  3878
 C         1.605172         2.506404         1.604643
 C         1.845426         1.017100         1.586667
 C         1.592613         0.209541         2.840758
 C         2.024944        -1.162304         2.154615
 O         1.011302        -1.489722         1.248785
 C         1.528352        -0.263304         0.437169
 C         1.005969         0.038092        -0.923311
 C         2.912945        -0.629609         0.941446
 O         3.331593         0.772843         1.274585
 H         0.477897         2.627044         1.642964
 H         1.981893         2.964645         2.582853
 H         2.006904         3.000410         0.752194
 H         2.184968         0.220411         3.689095
 H         0.511192         0.162626         3.198716
 H         2.436555        -1.878162         2.831655
 H         1.093348        -0.882798        -1.388538
 H         0.009745         0.383501        -0.830090
 H         1.556229         0.829881        -1.471581
 H         3.655650        -1.111918         0.249676
