19
Iteration:  2622charge 0 multiplicity 1
 C         2.050966         2.614333         1.241199
 C         2.148020         1.077666         1.507448
 C         2.129722         0.313806         2.850675
 C         2.028028        -1.158979         2.185243
 O         0.670875        -1.125128         1.665318
 C         1.291626        -0.237794         0.705979
 C         0.475363        -0.088939        -0.624016
 C         2.721012        -0.860795         0.808110
 O         3.393717         0.461396         0.887449
 H         0.997441         2.817760         1.007837
 H         2.158028         3.190883         2.179089
 H         2.650716         2.844219         0.366827
 H         3.127310         0.468413         3.362528
 H         1.300684         0.568046         3.516300
 H         2.198200        -2.060308         2.789419
 H        -0.562410        -0.212420        -0.217912
 H         0.487858         0.882617        -1.201720
 H         0.810513        -0.818342        -1.457016
 H         3.239495        -1.534163         0.055876
