19
Iteration:  3245charge 0 multiplicity 1
 C         1.472920         2.449972         1.502412
 C         1.837893         0.994695         1.548419
 C         1.727534         0.217595         2.810765
 C         2.037019        -1.212312         2.071103
 O         0.965435        -1.348727         1.175783
 C         1.561317        -0.246321         0.529116
 C         0.895825        -0.107523        -0.832886
 C         3.009597        -0.599787         1.006572
 O         3.363477         0.819631         1.369411
 H         1.582865         2.712827         2.578195
 H         2.279403         3.037093         0.999742
 H         0.484538         2.771630         1.061557
 H         2.530739         0.714534         3.461670
 H         0.774283         0.137369         3.242614
 H         2.224302        -2.099232         2.699403
 H         1.377785        -0.789194        -1.565966
 H        -0.140298        -0.364976        -0.678514
 H         0.882131         0.890869        -1.303355
 H         3.822652        -1.059242         0.492476
