19
Iteration:  1854charge 0 multiplicity 1
 C         2.473382         2.303469         0.854801
 C         2.344257         0.848207         1.320657
 C         2.626310         0.372025         2.721215
 C         2.024986        -0.954623         2.396947
 O         0.629975        -0.633046         2.107061
 C         1.084193        -0.101290         0.823151
 C         0.087587         0.176452        -0.350254
 C         2.383375        -1.059336         0.871546
 O         3.225522         0.020204         0.485245
 H         3.197542         2.337667         0.015084
 H         1.466874         2.636278         0.489565
 H         2.791314         3.056988         1.607311
 H         3.747149         0.218702         2.795362
 H         2.142608         0.796172         3.558409
 H         2.075720        -1.712398         3.176862
 H         0.076046        -0.716586        -1.041239
 H        -0.918329         0.389615         0.026414
 H         0.399683         1.192624        -0.834847
 H         2.611093        -1.973650         0.416522
