19
Iteration:  2651charge 0 multiplicity 1
 C         1.971019         2.364207         1.284743
 C         2.036164         0.971372         1.449733
 C         2.152304         0.312776         2.876982
 C         2.089412        -1.068065         2.251166
 O         0.732012        -1.045076         1.624396
 C         1.304408        -0.178689         0.712701
 C         0.589069        -0.054854        -0.654476
 C         2.658275        -0.810761         0.839492
 O         3.333664         0.479559         0.846179
 H         1.020319         2.616621         1.745198
 H         2.673347         2.980331         1.834732
 H         2.081725         2.682232         0.189283
 H         3.172054         0.561419         3.245781
 H         1.423426         0.506210         3.602920
 H         2.211033        -1.981131         2.876970
 H        -0.174117         0.719485        -0.462706
 H         1.248959         0.378265        -1.399406
 H         0.161983        -0.899260        -1.073578
 H         3.097248        -1.507047         0.125471
