19
Iteration:  2095
 C         2.377297         2.397703         0.933231
 C         2.328256         0.952891         1.309851
 C         2.459701         0.427399         2.787388
 C         2.004333        -1.034779         2.402392
 O         0.652234        -0.915406         1.946121
 C         1.182815        -0.164140         0.872809
 C         0.242147         0.183883        -0.254505
 C         2.428865        -1.020140         0.793399
 O         3.247427         0.149276         0.461280
 H         1.444622         3.021444         1.309881
 H         3.406500         2.877315         1.182160
 H         2.381884         2.275839        -0.163813
 H         3.399916         0.502569         3.324114
 H         1.523293         0.884980         3.331554
 H         2.020673        -1.702296         3.294105
 H         0.386084        -0.446904        -1.146185
 H        -0.830376         0.105935        -0.157514
 H         0.394429         1.225856        -0.632574
 H         2.769698        -1.967861         0.342125
