19
Iteration:  2136charge 0 multiplicity 1
 C         2.338603         2.457871         1.048674
 C         2.357438         0.920448         1.339273
 C         2.530247         0.415164         2.716412
 C         2.059915        -1.029400         2.367699
 O         0.645533        -0.764477         1.962212
 C         1.060553        -0.140578         0.745958
 C         0.033589         0.027479        -0.460196
 C         2.511426        -1.011317         0.805068
 O         3.328847         0.106093         0.684065
 H         2.244620         3.093186         1.930393
 H         3.317520         2.608110         0.510110
 H         1.608285         2.903836         0.405986
 H         3.624046         0.518109         3.080899
 H         1.779580         0.830581         3.363987
 H         2.225740        -1.903230         3.019736
 H        -0.389301        -0.958031        -0.737349
 H        -0.767285         0.730534        -0.233320
 H         0.732950         0.314385        -1.336231
 H         2.903185        -1.841721         0.244360
