19
Iteration:  2627charge 0 multiplicity 1
 C         2.020506         2.601473         1.220271
 C         2.138805         1.047285         1.509579
 C         2.147967         0.304582         2.848423
 C         2.006252        -1.180773         2.203039
 O         0.661821        -1.105845         1.691809
 C         1.309986        -0.262413         0.697968
 C         0.474153        -0.054944        -0.626523
 C         2.732113        -0.863002         0.806982
 O         3.389041         0.491482         0.865949
 H         0.948038         3.001452         1.181562
 H         2.308336         3.235641         2.091990
 H         2.692279         2.875747         0.381018
 H         3.066472         0.316491         3.405236
 H         1.301908         0.550327         3.576601
 H         2.223013        -2.129841         2.702692
 H        -0.582335        -0.115539        -0.380708
 H         0.677783         0.770418        -1.309065
 H         0.796344        -0.936298        -1.293388
 H         3.372159        -1.405858         0.143623
