19
Iteration:  1900charge 0 multiplicity 1
 C         2.427071         2.345234         0.857190
 C         2.391741         0.931689         1.233449
 C         2.535815         0.442455         2.705947
 C         1.987588        -1.007631         2.475239
 O         0.598393        -0.792213         2.011567
 C         1.143805        -0.135810         0.804216
 C         0.178137         0.250356        -0.182265
 C         2.390000        -1.026294         0.888396
 O         3.279068        -0.012623         0.442621
 H         2.440810         2.296055        -0.278274
 H         1.474464         2.798940         1.207746
 H         3.290557         2.886486         1.197879
 H         3.529819         0.471048         3.121098
 H         1.785197         1.077769         3.338532
 H         2.171712        -1.843104         3.131622
 H        -0.774398        -0.366243        -0.033398
 H        -0.030659         1.385536        -0.266990
 H         0.638028         0.059415        -1.230577
 H         2.357233        -2.055980         0.497016
