19
Iteration:  2567charge 0 multiplicity 1
 C         1.957721         2.521213         1.163616
 C         2.145120         1.017334         1.377518
 C         2.151852         0.291924         2.804627
 C         2.038505        -1.103303         2.294332
 O         0.707034        -1.038632         1.651768
 C         1.343622        -0.331897         0.631506
 C         0.468223         0.066894        -0.478096
 C         2.705957        -0.883595         0.878580
 O         3.374102         0.425050         0.845972
 H         1.629403         2.751441         0.198626
 H         1.352690         2.781629         2.024394
 H         2.974368         2.947547         1.379018
 H         3.115673         0.415267         3.412101
 H         1.281771         0.608751         3.324934
 H         2.325520        -1.983704         2.898561
 H         0.030045        -0.779224        -1.141652
 H        -0.385950         0.604858         0.043652
 H         1.040163         0.722811        -1.182089
 H         3.183566        -1.756750         0.347601
