19
Iteration:  4888charge 0 multiplicity 1
 C         1.100175         2.341490         1.587426
 C         1.782617         0.933171         1.562912
 C         1.907725         0.028968         2.921822
 C         2.284875        -1.220645         2.145986
 O         0.946472        -1.479506         1.289457
 C         1.538305        -0.256028         0.573696
 C         1.155378         0.182336        -0.842292
 C         3.029688        -0.496515         0.899331
 O         3.186191         0.943361         1.084365
 H         0.076875         2.457064         1.247800
 H         1.257722         2.513396         2.705931
 H         1.785625         2.972265         0.989806
 H         2.613745         0.526421         3.612027
 H         0.940800        -0.178061         3.354777
 H         2.782721        -2.168667         2.549320
 H         0.361832         0.953961        -0.720081
 H         1.957760         0.491892        -1.447524
 H         0.619644        -0.609562        -1.303424
 H         3.478461        -1.091270         0.176777
