19
Iteration:  1481
 C         2.585294         2.372967         0.806441
 C         2.458354         0.884894         1.166443
 C         2.674296         0.415903         2.601171
 C         2.074673        -0.966457         2.412038
 O         0.536883        -0.575557         2.139108
 C         1.044734        -0.219211         0.841902
 C         0.064144         0.296446        -0.151372
 C         2.243635        -1.103228         0.915081
 O         3.234852        -0.168103         0.467956
 H         2.290780         2.900595         1.719152
 H         3.558014         2.715728         0.414277
 H         1.858756         2.648920        -0.057445
 H         3.753004         0.544562         2.579338
 H         2.252785         1.057629         3.361495
 H         2.158795        -1.727471         3.180859
 H        -0.724927        -0.440914        -0.153432
 H        -0.519312         1.145375         0.144390
 H         0.438415         0.489140        -1.183897
 H         2.410636        -2.180467         0.522866
