19
Iteration:   308
 C         2.715928         2.297122         0.682431
 C         2.318714         0.908096         1.234740
 C         2.632996         0.463109         2.624705
 C         2.071651        -1.007818         2.375000
 O         0.612828        -0.606940         2.241717
 C         1.030542        -0.086481         0.991322
 C         0.136171         0.262084        -0.139279
 C         2.166729        -1.064100         0.828775
 O         3.168292        -0.154635         0.408787
 H         2.308676         3.094709         1.176816
 H         3.778779         2.139741         0.639918
 H         2.448736         2.457720        -0.339855
 H         3.642191         0.545380         2.935986
 H         2.002578         0.976429         3.345034
 H         2.185808        -1.846191         3.027369
 H        -0.063762        -0.583528        -0.780636
 H        -0.829406         0.643256         0.252595
 H         0.704208         0.989430        -0.766569
 H         2.012893        -2.060221         0.276043
