19
Iteration:  4247
 C         1.488712         2.428518         1.593931
 C         1.820582         0.979605         1.483574
 C         1.771368         0.156821         2.925709
 C         2.022602        -1.205732         2.183598
 O         0.845880        -1.278565         1.270417
 C         1.575567        -0.190935         0.492167
 C         1.142209        -0.019634        -0.903522
 C         2.930355        -0.602338         0.929889
 O         3.296227         0.754120         1.221976
 H         0.383781         2.355198         1.547573
 H         1.717373         3.021481         2.516178
 H         1.835322         2.974886         0.739003
 H         2.616620         0.320062         3.582418
 H         0.723601        -0.015613         3.358192
 H         2.219886        -2.147349         2.670819
 H         0.046854         0.041585        -0.890495
 H         1.627510         0.877016        -1.404892
 H         1.539048        -0.952573        -1.397537
 H         3.579710        -1.192503         0.272399
