19
Iteration:  2276
 C         2.213516         2.442432         1.110340
 C         2.215068         0.976351         1.302905
 C         2.333870         0.420141         2.697163
 C         2.025127        -0.997489         2.279952
 O         0.666805        -0.911115         1.839480
 C         1.243283        -0.188138         0.740648
 C         0.206540         0.029639        -0.384853
 C         2.493720        -0.930003         0.791171
 O         3.452467         0.159793         0.763404
 H         2.372633         2.863035         0.123579
 H         1.262084         2.807755         1.566367
 H         3.088629         2.799908         1.661251
 H         3.417092         0.499910         3.047164
 H         1.634519         0.809780         3.406224
 H         2.205421        -1.772884         3.060253
 H         0.811979         0.246185        -1.262099
 H        -0.308675        -0.924702        -0.584378
 H        -0.452810         0.889480        -0.018191
 H         2.862827        -1.797166         0.241779
