19
Iteration:  1092
 C         2.619153         2.419254         0.828523
 C         2.339799         0.874885         1.104089
 C         2.708685         0.459224         2.553648
 C         2.029243        -0.969238         2.432516
 O         0.591137        -0.678781         2.215279
 C         1.083523        -0.101704         0.907705
 C         0.072964         0.310358        -0.126066
 C         2.233996        -1.112905         0.900670
 O         3.170047        -0.230453         0.396930
 H         1.729419         3.024649         1.017389
 H         3.569167         2.598351         1.483602
 H         2.808044         2.515693        -0.268662
 H         3.848475         0.540006         2.577640
 H         2.239124         1.024016         3.246386
 H         2.188376        -1.682363         3.171293
 H        -0.701069        -0.444645        -0.342800
 H        -0.287405         1.332675         0.013710
 H         0.713143         0.523064        -1.036744
 H         2.225518        -2.016178         0.472348
