19
Iteration:  3354
 C         1.238841         2.341504         1.448600
 C         1.857117         0.945119         1.569017
 C         1.696990         0.125075         2.849866
 C         2.037290        -1.195771         2.155495
 O         0.965569        -1.287562         1.220559
 C         1.618220        -0.156703         0.528089
 C         1.129091         0.118252        -0.849895
 C         2.985809        -0.663285         1.013292
 O         3.411621         0.748650         1.284711
 H         1.258969         2.839570         0.461313
 H         0.146506         2.163379         1.494371
 H         1.523973         2.945943         2.367961
 H         2.186916         0.665638         3.717302
 H         0.747751         0.085322         3.228329
 H         2.320879        -2.093025         2.734683
 H         0.284565        -0.560638        -1.131679
 H         0.711095         1.059269        -1.049754
 H         1.940923        -0.003528        -1.519005
 H         3.677207        -1.207420         0.377096
