19
Iteration:   292
 C         2.720497         2.351370         0.730488
 C         2.353084         0.876078         1.117499
 C         2.752742         0.417674         2.626862
 C         2.031883        -0.911278         2.526542
 O         0.563849        -0.653697         2.190207
 C         1.070565        -0.118136         0.901983
 C         0.101593         0.279548        -0.193058
 C         2.182466        -1.140180         0.879677
 O         3.082070        -0.141956         0.405615
 H         2.301258         3.111603         1.523858
 H         3.748311         2.649574         0.980806
 H         2.416848         2.544692        -0.337439
 H         3.887920         0.315163         2.544481
 H         2.348063         0.994405         3.529397
 H         2.210008        -1.640468         3.362528
 H        -0.162917        -0.640898        -0.778685
 H        -0.845175         0.742884         0.278064
 H         0.507663         1.097346        -0.789057
 H         2.255393        -2.074856         0.412498
