19
Iteration:  2418charge 0 multiplicity 1
 C         2.126420         2.552615         1.101320
 C         2.208880         1.018973         1.483780
 C         2.311523         0.331981         2.839083
 C         2.074661        -1.059783         2.295649
 O         0.677301        -1.061824         1.726527
 C         1.203160        -0.223209         0.681476
 C         0.336883         0.016456        -0.506921
 C         2.578159        -0.871074         0.793592
 O         3.374831         0.297313         0.799714
 H         2.356460         3.271869         1.974500
 H         3.020548         2.632587         0.390343
 H         1.137084         2.706557         0.623946
 H         3.247829         0.485504         3.417021
 H         1.453469         0.591916         3.515389
 H         2.150662        -1.847500         3.063809
 H        -0.448787         0.729217        -0.280971
 H         0.954836         0.505384        -1.239636
 H        -0.161618        -0.847053        -1.067710
 H         2.955345        -1.753034         0.266638
