19
Iteration:  3683
 C         1.361263         2.368369         1.407684
 C         1.871551         0.947240         1.573485
 C         1.708233         0.157574         2.842449
 C         2.063716        -1.238989         2.160610
 O         0.918435        -1.339694         1.184751
 C         1.572284        -0.222159         0.503882
 C         1.091054         0.144775        -0.860745
 C         2.942270        -0.617510         1.078667
 O         3.368157         0.742235         1.288150
 H         0.268593         2.316233         1.407139
 H         1.808184         2.900009         2.271138
 H         1.718046         2.922909         0.585631
 H         2.489428         0.353544         3.550173
 H         0.763021         0.207783         3.468926
 H         2.231519        -2.021652         2.865336
 H         1.098110        -0.551702        -1.691628
 H        -0.008786         0.388737        -0.772424
 H         1.497277         1.173900        -1.104697
 H         3.811281        -1.165110         0.715306
