19
Iteration:  4941charge 0 multiplicity 1
 C         1.161387         2.319478         1.516835
 C         1.860257         0.974509         1.575643
 C         1.796520         0.022993         2.790028
 C         2.255981        -1.217542         2.071263
 O         1.056223        -1.326211         1.139625
 C         1.523855        -0.135867         0.551428
 C         0.782527         0.050031        -0.723318
 C         3.149536        -0.543080         0.988320
 O         3.370901         0.873691         1.303106
 H         0.097728         2.153586         1.338115
 H         1.320278         3.009568         2.387445
 H         1.664899         2.649501         0.640303
 H         2.431381         0.463911         3.570857
 H         0.785961        -0.159546         3.150929
 H         2.411413        -2.269100         2.520205
 H        -0.320765        -0.031774        -0.483310
 H         1.012935         1.001892        -1.174202
 H         1.079878        -0.694299        -1.403323
 H         3.919219        -1.080184         0.462150
