19
Iteration:  4495
 C         1.369994         2.326843         1.505174
 C         1.914506         0.998926         1.562177
 C         1.646971         0.083816         2.889085
 C         2.099360        -1.171743         2.179243
 O         1.042621        -1.322428         1.119360
 C         1.653189        -0.246546         0.487161
 C         0.807375         0.081796        -0.853930
 C         3.090376        -0.538086         0.993661
 O         3.351200         0.805543         1.316637
 H         0.247143         2.210756         1.509184
 H         1.587900         3.033159         2.342773
 H         1.718541         2.756440         0.578113
 H         2.167049         0.470614         3.784192
 H         0.549587         0.045458         3.262100
 H         2.289997        -2.178682         2.475878
 H        -0.036345        -0.580461        -0.598610
 H         0.379481         1.098994        -1.090291
 H         1.366535        -0.494386        -1.692953
 H         4.045504        -1.065039         0.636574
