19
Iteration:  3441charge 0 multiplicity 1
 C         1.434977         2.418214         1.532015
 C         1.830040         0.936984         1.596936
 C         1.681679         0.088778         2.818760
 C         2.020871        -1.206902         2.218728
 O         0.961027        -1.416622         1.221865
 C         1.527651        -0.239278         0.479276
 C         1.141169         0.120786        -0.961738
 C         2.965867        -0.562016         0.977401
 O         3.294586         0.839750         1.324080
 H         0.593920         2.647453         0.877467
 H         1.098002         2.705489         2.523056
 H         2.245887         3.041402         1.072802
 H         2.283217         0.694126         3.628637
 H         0.668872         0.034481         3.051972
 H         2.215631        -2.188703         2.702124
 H         1.065362        -0.936120        -1.402236
 H         0.206196         0.579394        -1.108790
 H         2.024875         0.580311        -1.352124
 H         3.863192        -1.165707         0.674619
