19
Iteration:  3678charge 0 multiplicity 1
 C         1.339176         2.347783         1.406139
 C         1.896363         0.965347         1.563268
 C         1.718889         0.165292         2.872504
 C         2.039699        -1.239510         2.192661
 O         0.907527        -1.360256         1.179796
 C         1.564323        -0.237513         0.519085
 C         1.106339         0.195385        -0.868330
 C         2.959487        -0.650926         1.044610
 O         3.354713         0.760077         1.286891
 H         0.237380         2.428673         1.373996
 H         1.609416         2.936039         2.293091
 H         1.766841         2.814035         0.448463
 H         2.617613         0.459993         3.513099
 H         0.779400         0.169585         3.377567
 H         2.365641        -2.028334         2.946971
 H         1.079416        -0.428909        -1.795295
 H         0.054362         0.367807        -0.674972
 H         1.636851         1.108933        -1.038197
 H         3.750627        -1.338145         0.663954
