19
Iteration:  1303
 C         2.475603         2.217040         0.722292
 C         2.439531         0.856173         1.116418
 C         2.630571         0.463199         2.611781
 C         2.067054        -0.932008         2.426960
 O         0.600159        -0.647356         2.137134
 C         1.096653        -0.115586         0.928695
 C         0.094071         0.386708        -0.053560
 C         2.239921        -1.047956         0.871162
 O         3.248181        -0.196098         0.420643
 H         1.474517         2.716026         0.976005
 H         3.363076         2.701109         1.255240
 H         2.631895         2.414287        -0.365994
 H         3.635200         0.508734         2.875064
 H         2.077788         0.905027         3.577443
 H         2.285810        -1.861863         3.113594
 H        -0.879674        -0.112865         0.143637
 H         0.033563         1.514634        -0.050952
 H         0.477419         0.295401        -1.034590
 H         2.373562        -2.086105         0.438675
