19
Iteration:   198
 C         2.606313         2.269453         0.700013
 C         2.294594         0.910492         1.216129
 C         2.706304         0.395737         2.632485
 C         2.027805        -0.945921         2.469184
 O         0.635909        -0.699404         2.188841
 C         1.105278        -0.149527         0.915123
 C         0.144028         0.413333        -0.110627
 C         2.214449        -1.133098         0.874877
 O         3.113957        -0.086208         0.363885
 H         1.992175         3.158995         0.983445
 H         3.753631         2.463068         0.979207
 H         2.564906         2.113710        -0.398641
 H         3.757143         0.343844         2.623701
 H         2.190130         1.179681         3.338567
 H         2.168028        -1.858183         3.176467
 H        -0.880555         0.000906        -0.057474
 H         0.127933         1.587255        -0.015041
 H         0.452145         0.146203        -1.096966
 H         2.250974        -2.259679         0.599971
