19
Iteration:  2371charge 0 multiplicity 1
 C         2.034433         2.342362         1.174144
 C         2.279131         0.849802         1.404072
 C         2.290488         0.458296         2.864078
 C         1.994771        -1.036647         2.386974
 O         0.644054        -0.884628         1.791051
 C         1.319902        -0.273516         0.642534
 C         0.348068         0.153922        -0.489773
 C         2.630326        -0.928760         0.790382
 O         3.393312         0.281734         0.641214
 H         1.314589         2.807477         1.810746
 H         2.965898         2.959420         1.203257
 H         1.623206         2.337559         0.103814
 H         3.317956         0.435460         3.386121
 H         1.556709         0.794512         3.549291
 H         2.127211        -1.930795         3.044381
 H        -0.512754        -0.496008        -0.409483
 H        -0.008474         1.219229        -0.446294
 H         0.786742         0.024915        -1.434661
 H         3.044752        -1.852555         0.341777
