19
Iteration:  3513
 C         1.328802         2.339007         1.412792
 C         1.805235         0.953177         1.563606
 C         1.765838         0.107566         2.969735
 C         2.024436        -1.190089         2.129095
 O         0.858367        -1.276315         1.167232
 C         1.610404        -0.211279         0.486150
 C         1.166071         0.114422        -0.872915
 C         2.987653        -0.577089         0.989771
 O         3.350578         0.715416         1.378663
 H         0.304617         2.615414         1.766220
 H         2.051197         3.057876         1.799776
 H         1.309635         2.398352         0.325725
 H         2.390225         0.404739         3.762633
 H         0.676876         0.077238         3.318867
 H         2.334033        -2.018165         2.759238
 H         1.785931        -0.313980        -1.639542
 H         0.159565        -0.279216        -1.162848
 H         1.260525         1.226825        -0.955645
 H         3.706330        -1.182055         0.493032
