19
Iteration:  2880
 C         1.729996         2.363984         1.327569
 C         2.077362         0.959194         1.421529
 C         1.976015         0.354122         2.880040
 C         2.011582        -1.105831         2.246372
 O         0.837053        -1.277680         1.476187
 C         1.371293        -0.208435         0.662624
 C         0.709115         0.123989        -0.688069
 C         2.839386        -0.777767         0.909169
 O         3.342370         0.547754         0.970120
 H         0.808408         2.485086         0.900428
 H         1.608597         2.776488         2.333436
 H         2.544893         2.872054         0.840876
 H         2.843460         0.768842         3.462319
 H         1.057053         0.520944         3.355629
 H         2.212380        -1.975086         2.890043
 H        -0.192648         0.843603        -0.638227
 H         1.471332         0.636546        -1.307831
 H         0.327358        -0.772657        -1.113718
 H         3.453212        -1.553676         0.360108
