19
Iteration:  1180charge 0 multiplicity 1
 C         2.558092         2.213343         0.789181
 C         2.387881         0.800738         1.130975
 C         2.672603         0.450887         2.662304
 C         1.979343        -0.906433         2.501633
 O         0.609429        -0.594260         2.118991
 C         1.121024        -0.068452         0.827591
 C        -0.020428         0.322610        -0.083005
 C         2.266516        -1.128759         0.878358
 O         3.252023        -0.128352         0.373297
 H         2.039929         2.899043         1.494509
 H         3.735746         2.391925         0.874609
 H         2.494932         2.553012        -0.259319
 H         3.866847         0.346161         2.665859
 H         2.411013         1.080581         3.469821
 H         2.108033        -1.610794         3.276069
 H        -0.377980        -0.624815        -0.611926
 H        -0.893387         0.770566         0.477577
 H         0.394707         1.028680        -0.881547
 H         2.419093        -2.046578         0.469522
