19
Iteration:  3175
 C         1.356605         2.375948         1.428249
 C         1.889684         0.986745         1.540053
 C         1.877446         0.223189         2.916237
 C         2.086264        -1.172848         2.181587
 O         0.887815        -1.289176         1.308582
 C         1.537314        -0.257224         0.544865
 C         0.965126         0.085861        -0.826847
 C         2.973924        -0.688122         0.958391
 O         3.362163         0.709587         1.151408
 H         0.255810         2.262838         1.254478
 H         1.403771         2.896633         2.421016
 H         1.793567         2.959893         0.617035
 H         2.711323         0.352429         3.533518
 H         0.875295         0.295306         3.454892
 H         2.102908        -2.042870         2.868187
 H         1.720704         0.725485        -1.253745
 H         0.709325        -0.731701        -1.510239
 H         0.107604         0.733272        -0.730290
 H         3.672030        -1.380076         0.410033
