19
Iteration:  2981
 C         1.644794         2.411479         1.446298
 C         1.950232         1.000897         1.459928
 C         1.859891         0.298317         2.902029
 C         2.119384        -1.143168         2.225649
 O         0.820822        -1.265850         1.504889
 C         1.401780        -0.217995         0.613194
 C         0.858857         0.032990        -0.766918
 C         2.835014        -0.735069         0.826550
 O         3.396513         0.587928         0.988778
 H         1.680102         2.768583         2.463845
 H         2.399930         2.832415         0.801121
 H         0.655813         2.631076         1.162188
 H         2.649134         0.705358         3.438702
 H         0.838900         0.523363         3.404624
 H         2.277426        -2.016545         2.885161
 H         1.646398        -0.116199        -1.473696
 H        -0.074682        -0.538913        -1.032848
 H         0.596360         1.152823        -0.859379
 H         3.396680        -1.428827         0.167248
