19
Iteration:  3349
 C         1.226444         2.324871         1.439599
 C         1.872638         0.932937         1.548814
 C         1.721353         0.108386         2.861206
 C         2.037223        -1.222891         2.126387
 O         0.971229        -1.290209         1.280102
 C         1.567358        -0.197023         0.547275
 C         1.159123         0.126249        -0.855303
 C         2.924441        -0.617958         0.971708
 O         3.438311         0.805146         1.287485
 H         1.534218         2.901185         0.540144
 H         0.155372         2.091670         1.374948
 H         1.402767         2.956884         2.276983
 H         2.302072         0.495070         3.674229
 H         0.581800         0.070620         3.184730
 H         2.199326        -2.066228         2.802323
 H         0.364550        -0.490041        -1.243172
 H         0.770143         1.196831        -0.994991
 H         2.075705        -0.005226        -1.508096
 H         3.552086        -1.400568         0.475397
