19
Iteration:  3766charge 0 multiplicity 1
 C         1.551155         2.413701         1.706269
 C         1.819149         0.947734         1.515927
 C         1.663878         0.161375         2.853827
 C         2.019035        -1.104468         2.141029
 O         0.900675        -1.373965         1.229218
 C         1.530306        -0.262519         0.454624
 C         1.163397        -0.031552        -0.937536
 C         2.911352        -0.586861         0.963909
 O         3.245219         0.800825         1.214822
 H         0.633650         2.650436         2.271375
 H         2.349526         2.817336         2.324659
 H         1.464568         2.880218         0.660049
 H         2.412450         0.460431         3.679385
 H         0.673746         0.111059         3.171033
 H         2.514913        -1.902020         2.760408
 H         1.395246        -0.920633        -1.579287
 H         0.244020         0.470540        -1.001348
 H         1.802765         0.753526        -1.321378
 H         3.848389        -1.159737         0.883237
