19
Iteration:  1883
 C         2.442047         2.394630         0.776987
 C         2.325361         0.834527         1.236564
 C         2.501270         0.447304         2.670436
 C         2.045310        -1.004859         2.354002
 O         0.615244        -0.769059         2.123727
 C         1.133803        -0.067487         0.915574
 C         0.237459         0.242917        -0.243617
 C         2.309222        -1.067329         0.842098
 O         3.260367        -0.032306         0.513211
 H         2.816839         2.558800        -0.214971
 H         1.545975         3.016403         0.914571
 H         3.027566         2.919390         1.586700
 H         3.584079         0.447441         2.904720
 H         1.835718         0.798919         3.438385
 H         2.162851        -1.743220         3.194813
 H        -0.331160        -0.633587        -0.434318
 H        -0.362183         1.084123         0.048374
 H         0.841846         0.399942        -1.086626
 H         2.501820        -1.951559         0.174353
