19
Iteration:  3771
 C         1.507413         2.389653         1.662728
 C         1.848384         0.945934         1.541153
 C         1.652990         0.149377         2.854882
 C         2.058556        -1.091905         2.177374
 O         0.890789        -1.367043         1.256307
 C         1.506686        -0.236079         0.451558
 C         1.170583         0.009960        -0.942737
 C         2.951186        -0.627911         0.956413
 O         3.252041         0.794523         1.197746
 H         0.583324         2.577791         2.215844
 H         2.312849         2.812042         2.300231
 H         1.471402         2.908544         0.745928
 H         2.368686         0.433977         3.566796
 H         0.556894         0.188473         3.202810
 H         2.320535        -2.005488         2.690624
 H         1.289516        -0.807131        -1.633846
 H         0.109027         0.415104        -1.107991
 H         2.028343         0.760770        -1.117597
 H         3.900141        -1.152071         0.786830
