19
Iteration:   303
 C         2.725770         2.331648         0.709940
 C         2.297354         0.915462         1.186101
 C         2.674884         0.440383         2.631156
 C         2.080633        -0.977639         2.426444
 O         0.593992        -0.625284         2.217510
 C         1.028359        -0.104755         0.975419
 C         0.165968         0.270898        -0.134321
 C         2.146851        -1.106509         0.825231
 O         3.144819        -0.164204         0.414594
 H         2.181820         3.244652         1.228933
 H         3.841218         2.174714         0.613623
 H         2.519330         2.549633        -0.395066
 H         3.774567         0.599514         2.904846
 H         2.118024         1.042840         3.453155
 H         2.192283        -1.841794         3.147919
 H        -0.125969        -0.565549        -0.838959
 H        -0.876760         0.628228         0.222463
 H         0.583349         0.997221        -0.825439
 H         2.093321        -1.999587         0.281840
