19
Iteration:  2739charge 0 multiplicity 1
 C         1.890770         2.547816         1.200095
 C         2.101036         0.992622         1.490270
 C         2.069929         0.246459         2.896209
 C         2.069382        -1.139323         2.206338
 O         0.714778        -1.160159         1.588390
 C         1.349735        -0.182768         0.578760
 C         0.556942        -0.011721        -0.623190
 C         2.728925        -0.791215         0.866585
 O         3.406012         0.512900         1.001180
 H         2.548109         3.183543         1.751508
 H         2.101876         2.738955         0.121227
 H         0.810900         2.688849         1.499387
 H         2.984367         0.483394         3.506103
 H         1.195985         0.281959         3.464076
 H         2.445282        -2.145128         2.514540
 H         1.218288         0.195042        -1.504640
 H        -0.163042        -0.808569        -0.713800
 H         0.009156         0.831707        -0.426851
 H         3.294540        -1.595149         0.315368
