19
Iteration:    16
 C         2.565241         2.295326         0.610377
 C         2.525612         0.839507         1.104900
 C         2.631616         0.322481         2.655653
 C         1.923951        -0.984126         2.350404
 O         0.584484        -0.463371         2.217919
 C         1.147997         0.006353         0.942646
 C        -0.030373         0.277045         0.036451
 C         2.212844        -1.112202         0.811159
 O         3.373422        -0.191271         0.425919
 H         1.855730         2.742616         1.262614
 H         3.436029         2.860927         0.866869
 H         2.332297         2.351337        -0.417715
 H         3.578732         0.340428         3.130161
 H         1.948652         0.864255         3.334814
 H         1.983529        -1.844987         3.091309
 H        -0.433332        -0.757644        -0.320653
 H        -0.853082         0.859983         0.494928
 H         0.501243         0.930634        -0.850419
 H         2.176803        -2.167386         0.306626
