19
Iteration:  2994charge 0 multiplicity 1
 C         1.604647         2.390059         1.405321
 C         1.989310         0.875230         1.564247
 C         1.979558         0.340534         2.900945
 C         2.002132        -1.086809         2.254909
 O         0.824115        -1.283832         1.467220
 C         1.412087        -0.307911         0.563251
 C         0.915827         0.093925        -0.765228
 C         2.805162        -0.669078         0.829147
 O         3.336762         0.615833         1.011117
 H         2.126702         2.922119         2.257904
 H         2.037111         2.937570         0.560399
 H         0.556396         2.608131         1.252832
 H         2.778731         0.614186         3.619069
 H         0.954677         0.439700         3.392515
 H         2.468399        -1.981868         2.634999
 H         1.438939        -0.448950        -1.527209
 H        -0.094230        -0.383310        -0.862269
 H         0.903301         1.237966        -1.012155
 H         3.330207        -1.452874         0.337694
