19
Iteration:   226
 C         2.506526         2.286505         0.713079
 C         2.456809         0.871443         1.199745
 C         2.746205         0.330857         2.636055
 C         2.021978        -0.978903         2.397520
 O         0.536035        -0.525709         2.213440
 C         1.100243        -0.035246         0.938047
 C         0.036136         0.305601        -0.093779
 C         2.226552        -1.103342         0.787120
 O         3.296746        -0.168291         0.422105
 H         1.685042         2.838331         1.170579
 H         3.309823         2.827339         1.101244
 H         2.467128         2.225716        -0.384824
 H         3.873750         0.272010         2.862899
 H         2.307653         0.959263         3.392977
 H         2.103261        -1.793862         3.084306
 H        -0.848144        -0.363290        -0.004214
 H        -0.373481         1.330209        -0.223779
 H         0.408193         0.191649        -1.131788
 H         2.178650        -2.070139         0.373973
