19
Iteration:  2559
 C         1.971656         2.459160         1.130992
 C         2.167428         0.972329         1.383275
 C         2.167256         0.354914         2.882772
 C         2.047792        -1.081216         2.251920
 O         0.727723        -1.099347         1.627810
 C         1.273788        -0.247899         0.688485
 C         0.481255         0.089032        -0.470107
 C         2.709281        -0.891573         0.847560
 O         3.371057         0.401938         0.843465
 H         1.605220         2.839392         0.144190
 H         1.122955         2.858766         1.764951
 H         2.809687         3.020810         1.521618
 H         3.165623         0.462748         3.352006
 H         1.366708         0.706417         3.627624
 H         2.204064        -1.947454         2.882772
 H         0.376512        -0.733044        -1.180985
 H        -0.496808         0.415528        -0.136581
 H         1.067424         0.920350        -1.068886
 H         2.956947        -1.807978         0.308360
