19
Iteration:  3551
 C         1.571722         2.484901         1.616333
 C         1.830592         0.956916         1.591025
 C         1.540944         0.145765         2.851347
 C         2.069077        -1.092888         2.166742
 O         0.994834        -1.520130         1.156756
 C         1.549658        -0.206346         0.412819
 C         1.069516        -0.047949        -0.961315
 C         2.939859        -0.535653         1.053441
 O         3.279689         0.810720         1.321964
 H         0.798182         2.880728         2.278216
 H         2.529666         2.862818         2.082667
 H         1.447333         2.932770         0.616958
 H         2.056395         0.409756         3.847395
 H         0.475430         0.030961         2.832715
 H         2.390922        -2.006544         2.719583
 H         1.513157        -0.762989        -1.714813
 H        -0.004891         0.025196        -0.846940
 H         1.320151         0.957367        -1.359645
 H         3.806659        -0.999848         0.456137
