19
Iteration:  4273
 C         1.324439         2.316688         1.522005
 C         1.928916         0.953848         1.534347
 C         1.807805         0.204216         2.843139
 C         2.007691        -1.108627         2.172662
 O         0.918002        -1.254590         1.226465
 C         1.565640        -0.205476         0.454649
 C         0.949131         0.086178        -0.897391
 C         2.993461        -0.670785         1.018378
 O         3.428711         0.703675         1.345309
 H         0.312875         2.042164         1.312326
 H         1.277305         3.063394         2.260782
 H         1.696794         2.763588         0.551777
 H         2.586174         0.288867         3.598762
 H         0.772996         0.144022         3.022041
 H         2.205518        -2.170772         2.538676
 H         0.199667         0.878775        -0.631429
 H         1.799301         0.486565        -1.486430
 H         0.551066        -0.779036        -1.369160
 H         3.717328        -1.369534         0.622139
