19
Iteration:   210
 C         2.586685         2.186404         0.687191
 C         2.412920         0.803711         1.203060
 C         2.753693         0.409474         2.634417
 C         1.985282        -0.927627         2.506474
 O         0.601588        -0.675031         2.170636
 C         1.039741        -0.108583         0.929133
 C         0.092943         0.373568        -0.128568
 C         2.256540        -1.041969         0.850505
 O         3.130224        -0.056450         0.385865
 H         1.758071         2.828121         1.064645
 H         3.617782         2.654349         0.992378
 H         2.569533         2.234750        -0.418781
 H         3.778046         0.211973         2.715035
 H         2.504418         1.010633         3.557496
 H         2.084703        -1.731233         3.305349
 H        -0.899155        -0.014931         0.004624
 H         0.018702         1.475041        -0.067163
 H         0.517898         0.140734        -1.104265
 H         2.367129        -2.012468         0.202402
