19
Iteration:  3370charge 0 multiplicity 1
 C         1.267665         2.337889         1.531217
 C         1.915101         0.962929         1.542132
 C         1.670867         0.194292         2.863448
 C         2.105755        -1.164349         2.185024
 O         0.958515        -1.276710         1.096577
 C         1.651744        -0.256719         0.452676
 C         1.037670         0.050323        -0.901790
 C         3.025007        -0.574068         1.018916
 O         3.333440         0.732604         1.388618
 H         1.302372         2.715441         0.491999
 H         0.299685         2.289535         2.078560
 H         1.902837         3.119951         1.929455
 H         2.440341         0.353101         3.591450
 H         0.514842         0.159309         3.159126
 H         2.093774        -2.040603         2.837253
 H         0.265584        -0.732556        -0.922589
 H         0.494898         1.071355        -0.852337
 H         1.666309        -0.084707        -1.845509
 H         3.854982        -1.304118         0.804058
