19
Iteration:  1833charge 0 multiplicity 1
 C         2.468770         2.425733         0.876613
 C         2.380208         0.869179         1.167291
 C         2.633324         0.364886         2.670911
 C         1.924856        -0.966421         2.451726
 O         0.550612        -0.649961         2.035843
 C         1.203352        -0.068818         0.902890
 C         0.137443         0.091981        -0.184746
 C         2.292048        -1.049430         0.835969
 O         3.326017        -0.040025         0.473666
 H         3.344442         2.661802         0.254914
 H         1.547226         2.789470         0.338658
 H         2.428316         3.036282         1.766845
 H         3.749136         0.304341         2.825739
 H         2.094251         1.003232         3.373347
 H         1.940616        -1.886819         2.994398
 H         0.374675        -0.556650        -1.093071
 H        -0.782330        -0.208193         0.351603
 H         0.031554         1.241216        -0.537220
 H         2.336791        -1.914306         0.264368
