19
Iteration:  2003
 C         2.434472         2.435687         0.975922
 C         2.221890         0.966914         1.238494
 C         2.477508         0.413316         2.654108
 C         2.069854        -0.985402         2.386576
 O         0.651102        -0.758404         2.083070
 C         1.075944        -0.165344         0.829303
 C         0.281576         0.112522        -0.347687
 C         2.384039        -1.023945         0.783984
 O         3.211848         0.000560         0.576004
 H         1.553881         2.908687         0.571953
 H         2.686705         3.028840         1.939810
 H         3.381447         2.531612         0.328197
 H         3.691012         0.468943         2.690623
 H         2.049893         0.858083         3.521684
 H         2.281641        -1.855043         3.010245
 H         0.356796         1.184145        -0.692589
 H         0.559227        -0.580137        -1.225581
 H        -0.751920        -0.009146         0.085220
 H         2.601790        -2.020855         0.318575
