19
Iteration:  4357charge 0 multiplicity 1
 C         1.485976         2.462025         1.669788
 C         1.808525         1.026223         1.574729
 C         1.674124         0.127818         2.769354
 C         2.106089        -1.178773         2.133995
 O         0.952635        -1.349031         1.193406
 C         1.527924        -0.148645         0.505990
 C         1.048033        -0.159645        -0.889392
 C         2.977895        -0.561476         0.951266
 O         3.293718         0.808368         1.274665
 H         0.434454         2.593311         1.932079
 H         2.149765         2.887644         2.514403
 H         1.703488         2.992762         0.703065
 H         2.347382         0.318061         3.594289
 H         0.719756         0.070921         3.411949
 H         2.385006        -2.177796         2.562869
 H         1.723318         0.293888        -1.676894
 H         0.723366        -1.136387        -1.343292
 H         0.182614         0.505146        -0.847097
 H         3.729461        -1.060778         0.404623
