19
Iteration:  1722
 C         2.454070         2.307340         0.758316
 C         2.330075         0.868520         1.210345
 C         2.630326         0.444717         2.636105
 C         2.049057        -1.041584         2.395392
 O         0.611300        -0.527622         2.073846
 C         1.117315        -0.140827         0.864963
 C         0.108085         0.243051        -0.103270
 C         2.294099        -1.119889         0.790683
 O         3.302477        -0.097909         0.547956
 H         2.646760         2.875496         1.614818
 H         3.277919         2.546812         0.124553
 H         1.528949         2.689932         0.310238
 H         3.722574         0.557742         2.858270
 H         2.157167         0.806000         3.488263
 H         2.032914        -1.919016         3.137045
 H         0.134092         1.308290        -0.227299
 H         0.247327        -0.344161        -0.964798
 H        -0.927137         0.166434         0.314328
 H         2.333331        -1.979756         0.104994
