19
Iteration:  2203charge 0 multiplicity 1
 C         2.214467         2.382187         0.980973
 C         2.274763         1.002287         1.340182
 C         2.428636         0.359869         2.784635
 C         2.066097        -0.975331         2.316462
 O         0.682669        -0.907067         1.992055
 C         1.142157        -0.209727         0.795553
 C         0.282767         0.191318        -0.488232
 C         2.453683        -0.966545         0.805221
 O         3.309892         0.133591         0.654977
 H         3.247294         2.849693         1.117506
 H         1.876714         2.394352        -0.097958
 H         1.654923         3.026774         1.632254
 H         3.456075         0.339717         3.170988
 H         1.763260         0.881308         3.597080
 H         2.329635        -1.887682         2.882191
 H        -0.520307         0.924734        -0.206978
 H         1.045256         0.676697        -1.100316
 H        -0.158087        -0.816141        -0.842448
 H         2.643947        -1.987388         0.419007
