19
Iteration:  4345charge 0 multiplicity 1
 C         1.509119         2.468282         1.538524
 C         1.794003         0.964259         1.606831
 C         1.709430         0.106746         2.894533
 C         2.099499        -1.212372         2.109545
 O         1.026269        -1.385471         1.186679
 C         1.512370        -0.218901         0.494565
 C         0.974324        -0.009345        -0.915055
 C         2.935711        -0.511488         0.964548
 O         3.291781         0.782682         1.313051
 H         0.449921         2.755942         1.772429
 H         2.128963         2.966493         2.398578
 H         1.832929         2.979693         0.610157
 H         2.473130         0.625714         3.452896
 H         0.614164        -0.080632         3.232569
 H         2.216190        -1.997266         2.860284
 H         1.719019         0.643426        -1.395414
 H         1.087519        -1.074213        -1.221455
 H        -0.079564         0.294932        -1.072097
 H         3.639691        -1.075381         0.380528
