19
Iteration:   419charge 0 multiplicity 1
 C         2.555843         2.316036         0.696610
 C         2.360357         0.875666         1.192224
 C         2.799627         0.326200         2.586122
 C         1.967767        -1.038579         2.445590
 O         0.564293        -0.599741         2.274117
 C         1.062822         0.013237         0.979960
 C         0.196053         0.240089        -0.198818
 C         2.182553        -1.074990         0.889020
 O         3.168971        -0.069386         0.419930
 H         1.731239         2.862920         0.822958
 H         3.384963         2.866374         1.075627
 H         2.774051         2.409217        -0.314405
 H         3.889755         0.232143         2.633258
 H         2.509961         0.801782         3.448618
 H         1.938189        -1.866159         3.183124
 H        -0.670097        -0.389765        -0.471219
 H        -0.162315         1.223238        -0.314605
 H         0.890871         0.115596        -1.138196
 H         2.040611        -2.003454         0.233611
