19
Iteration:    91charge 0 multiplicity 1
 C         2.638803         2.237013         0.728281
 C         2.427095         0.820630         1.124798
 C         2.660351         0.512180         2.715551
 C         2.101325        -0.896698         2.426570
 O         0.652277        -0.608110         2.205530
 C         1.097396        -0.052438         0.988783
 C         0.123675         0.306217        -0.130567
 C         2.105134        -1.090684         0.859692
 O         3.089371        -0.203041         0.293481
 H         2.062612         2.873226         1.328711
 H         3.653063         2.390591         1.057417
 H         2.590827         2.446821        -0.277549
 H         3.606245         0.496936         3.053614
 H         2.057951         1.056182         3.441784
 H         2.220991        -1.809112         3.128232
 H         0.155928        -0.584310        -0.817258
 H        -0.871816         0.390665         0.198269
 H         0.552925         1.249191        -0.664765
 H         1.822745        -2.131672         0.347672
