19
Iteration:  2421charge 0 multiplicity 1
 C         2.137860         2.510674         1.107966
 C         2.228319         0.988275         1.485376
 C         2.316147         0.355712         2.843874
 C         2.073713        -1.069883         2.302035
 O         0.679680        -1.061323         1.709125
 C         1.190258        -0.218544         0.709593
 C         0.326119         0.001442        -0.517598
 C         2.582963        -0.826005         0.789497
 O         3.357103         0.322597         0.787534
 H         2.433537         3.196070         1.972326
 H         2.954861         2.594571         0.371222
 H         1.200259         2.777731         0.640248
 H         3.211337         0.379732         3.395500
 H         1.394297         0.546101         3.510863
 H         2.084269        -1.781371         3.114129
 H        -0.442326         0.831356        -0.332245
 H         1.089048         0.381879        -1.255048
 H        -0.235960        -0.867791        -0.994323
 H         3.033128        -1.702721         0.319802
