19
Iteration:  3636
 C         1.229300         2.323920         1.389296
 C         1.873747         0.908271         1.557072
 C         1.772603         0.056090         2.866421
 C         2.115837        -1.182059         2.181485
 O         0.833869        -1.283513         1.285936
 C         1.564916        -0.207685         0.545701
 C         1.218200         0.231476        -0.824764
 C         2.919496        -0.669162         1.020931
 O         3.372226         0.786865         1.257587
 H         0.230800         2.114769         1.048918
 H         1.329371         3.053577         2.161334
 H         1.789097         2.749531         0.518994
 H         2.449476         0.520734         3.671448
 H         0.828875         0.009805         3.276861
 H         2.356073        -2.261922         2.498902
 H         0.940825        -0.644347        -1.517511
 H         0.400355         0.918932        -1.036232
 H         2.104773         0.762976        -1.162767
 H         3.527093        -1.364796         0.355134
