19
Iteration:   476
 C         2.641258         2.332092         0.777203
 C         2.465718         0.845247         1.097041
 C         2.562569         0.473028         2.560955
 C         1.994144        -0.909427         2.374892
 O         0.549898        -0.555016         2.180110
 C         1.161471        -0.081507         0.870386
 C        -0.001518         0.265254         0.011545
 C         2.265731        -1.094374         0.799818
 O         3.314564        -0.264211         0.440163
 H         2.098650         2.832241         1.552194
 H         3.649561         2.486530         1.198179
 H         2.278784         2.471558        -0.274111
 H         3.577691         0.446768         2.937625
 H         1.621553         0.900852         3.103711
 H         2.214869        -1.590124         3.324123
 H        -0.442340        -0.661320        -0.563683
 H        -0.779250         0.723985         0.667212
 H         0.203367         1.037169        -0.816251
 H         2.246598        -2.070515         0.378958
