19
Iteration:  4957charge 0 multiplicity 1
 C         1.334179         2.282616         1.559065
 C         1.882542         0.963772         1.623692
 C         1.708559         0.063416         2.887903
 C         2.175068        -1.173341         2.088208
 O         1.104866        -1.346652         1.172860
 C         1.670770        -0.195205         0.384283
 C         0.762619        -0.017949        -0.779071
 C         3.028754        -0.454382         0.877336
 O         3.309368         0.885876         1.335793
 H         0.236537         2.145207         1.736914
 H         1.714018         2.825921         2.427159
 H         1.276817         2.965370         0.646404
 H         2.390484         0.295776         3.718664
 H         0.639724         0.026698         3.190119
 H         2.503351        -2.041772         2.609146
 H        -0.159487        -0.449153        -0.443339
 H         0.627716         1.031894        -1.157595
 H         1.047025        -0.700486        -1.652255
 H         3.944944        -0.905854         0.422137
