19
Iteration:  2062charge 0 multiplicity 1
 C         2.231407         2.369466         0.915195
 C         2.247456         0.857478         1.256776
 C         2.566205         0.436217         2.646237
 C         2.070449        -1.058207         2.342519
 O         0.637154        -0.778485         2.005610
 C         1.167095        -0.103280         0.806992
 C         0.144843         0.233611        -0.281136
 C         2.437860        -1.068247         0.766183
 O         3.388098         0.056206         0.710831
 H         1.232569         2.867336         0.601631
 H         2.799024         3.008045         1.725342
 H         2.802590         2.546799        -0.009687
 H         3.603755         0.639315         2.961721
 H         1.823929         0.695159         3.485926
 H         2.026190        -1.878552         3.089182
 H         0.667998         0.092654        -1.246780
 H        -0.754278        -0.334236        -0.160220
 H        -0.069054         1.349657        -0.241569
 H         2.654343        -2.002344         0.241474
