19
Iteration:   410charge 0 multiplicity 1
 C         2.514238         2.333514         0.692871
 C         2.416779         0.881041         1.189151
 C         2.725866         0.341376         2.630774
 C         2.024631        -1.033711         2.429890
 O         0.576360        -0.562842         2.254745
 C         1.129745        -0.018166         0.970572
 C         0.233984         0.272701        -0.207126
 C         2.134919        -1.095828         0.881401
 O         3.120707        -0.126295         0.364476
 H         1.720949         2.946592         1.032222
 H         3.317719         2.759024         1.332995
 H         2.730766         2.326180        -0.379279
 H         3.808211         0.387922         2.854039
 H         2.113624         0.813566         3.410244
 H         2.218206        -1.855469         3.211247
 H        -0.606273        -0.439244        -0.041022
 H         0.001764         1.286317        -0.223550
 H         0.895535         0.020215        -1.057492
 H         2.044243        -1.952849         0.244952
