19
Iteration:  2489charge 0 multiplicity 1
 C         1.963647         2.393060         1.305752
 C         2.237208         0.986457         1.384866
 C         2.273665         0.366743         2.778708
 C         1.955841        -1.019210         2.328064
 O         0.664259        -1.037167         1.753722
 C         1.298904        -0.153752         0.640839
 C         0.450213        -0.007595        -0.591409
 C         2.586334        -0.903778         0.851985
 O         3.460804         0.378336         0.742222
 H         2.894215         2.827921         0.951960
 H         1.281207         2.567300         0.499850
 H         1.656985         2.809205         2.281688
 H         3.323243         0.510230         3.179466
 H         1.600668         0.717372         3.543164
 H         2.221230        -1.865639         2.996808
 H         0.894272         0.522569        -1.503668
 H        -0.083398        -1.003534        -0.876887
 H        -0.343942         0.676143        -0.260670
 H         2.943967        -1.723944         0.203563
