19
Iteration:  4853charge 0 multiplicity 1
 C         1.198262         2.236533         1.774056
 C         1.817932         0.966156         1.617184
 C         1.864385         0.146312         2.913674
 C         2.267931        -1.105837         2.131434
 O         1.017784        -1.390458         1.147895
 C         1.536495        -0.172203         0.479366
 C         0.976310        -0.104508        -1.004743
 C         2.985143        -0.477602         0.892680
 O         3.274054         0.903017         1.259483
 H         0.101663         2.306314         1.949011
 H         1.613631         2.812303         2.609249
 H         1.458078         2.903487         0.984576
 H         2.508207         0.525562         3.680047
 H         0.826908         0.114266         3.309851
 H         2.451880        -2.073785         2.582104
 H         0.029886         0.433359        -1.136643
 H         1.627711         0.381550        -1.719474
 H         0.840370        -1.131216        -1.244086
 H         3.705047        -0.892382         0.157103
