19
Iteration:  3137
 C         1.406547         2.388364         1.457790
 C         2.007645         0.997014         1.542662
 C         1.912931         0.204029         2.884908
 C         2.066178        -1.139078         2.110090
 O         0.843762        -1.176098         1.325678
 C         1.485946        -0.231292         0.552195
 C         0.959403        -0.090590        -0.791336
 C         2.918117        -0.700719         0.909804
 O         3.330900         0.689683         1.215010
 H         0.857440         2.543330         0.530912
 H         0.897904         2.639294         2.362239
 H         2.251013         3.144661         1.453338
 H         2.586030         0.649644         3.749984
 H         0.915919         0.152733         3.281573
 H         2.267998        -2.137355         2.471920
 H         0.684788         1.045358        -0.897607
 H         1.579369        -0.311311        -1.674227
 H        -0.028069        -0.658304        -0.829342
 H         3.696542        -0.976531         0.245774
