19
Iteration:  1289
 C         2.466318         2.273017         0.768054
 C         2.403551         0.771527         1.207542
 C         2.678628         0.515359         2.603821
 C         2.074533        -0.920800         2.392248
 O         0.626538        -0.645891         2.115936
 C         1.112266        -0.039351         0.879955
 C         0.074458         0.396255        -0.075490
 C         2.237845        -1.145004         0.811446
 O         3.288053        -0.239796         0.464769
 H         1.659090         2.700132         1.370998
 H         3.347985         2.841706         1.159427
 H         2.271353         2.395865        -0.262657
 H         3.786178         0.620171         2.934973
 H         1.916803         1.202341         3.067538
 H         2.186498        -1.621114         3.244262
 H        -0.947609        -0.055094         0.175726
 H        -0.132878         1.469654        -0.033155
 H         0.198377        -0.106480        -1.044931
 H         2.085746        -2.061661         0.383038
