19
Iteration:  4060charge 0 multiplicity 1
 C         1.475768         2.478878         1.695307
 C         1.961133         0.980999         1.528384
 C         1.754929         0.168024         2.885709
 C         2.019664        -1.145346         2.140355
 O         0.835787        -1.192133         1.183817
 C         1.552445        -0.221316         0.405332
 C         0.909105        -0.182580        -0.989925
 C         3.026676        -0.569892         1.015218
 O         3.403611         0.730334         1.310356
 H         0.546028         2.620101         1.084319
 H         1.365121         2.724852         2.762262
 H         2.222351         3.151652         1.345587
 H         2.624643         0.358263         3.569687
 H         0.752879         0.297191         3.327080
 H         2.011038        -2.086178         2.684617
 H         1.023458        -1.294704        -1.327846
 H        -0.187366        -0.047528        -0.946188
 H         1.444041         0.468414        -1.803827
 H         3.558909        -1.456957         0.567205
