19
Iteration:  1131charge 0 multiplicity 1
 C         2.548438         2.151639         0.640362
 C         2.365188         0.826554         1.234005
 C         2.698376         0.380125         2.667689
 C         2.006789        -1.001694         2.373312
 O         0.618995        -0.564849         2.149652
 C         1.100306         0.032203         0.955224
 C         0.055104         0.362623        -0.043811
 C         2.294209        -1.061487         0.866330
 O         3.240686        -0.118794         0.413530
 H         1.595746         2.686845         0.646538
 H         3.225918         2.835757         0.988530
 H         2.973858         1.995153        -0.353109
 H         3.711983         0.429070         3.037212
 H         1.970830         0.949120         3.420623
 H         2.075647        -1.999704         2.977669
 H        -0.313547        -0.527824        -0.516956
 H        -0.848910         0.697396         0.516389
 H         0.296644         1.078573        -0.866081
 H         2.307002        -2.047003         0.164983
