19
Iteration:  3543charge 0 multiplicity 1
 C         1.589866         2.478890         1.596403
 C         1.828949         0.983656         1.505339
 C         1.597926         0.114105         2.891011
 C         2.022853        -1.203900         2.131704
 O         0.991392        -1.522920         1.174046
 C         1.589650        -0.173852         0.453969
 C         1.094906         0.026525        -0.954216
 C         2.927464        -0.566184         1.062947
 O         3.226793         0.824740         1.330252
 H         0.587980         2.767614         2.049148
 H         2.491978         3.165866         1.769708
 H         1.398196         2.822764         0.546933
 H         2.132487         0.446321         3.777417
 H         0.447063         0.220896         3.198975
 H         2.509588        -1.914947         2.748249
 H         1.614711        -0.684180        -1.528860
 H        -0.013739        -0.205944        -0.923842
 H         1.313388         1.102416        -1.161251
 H         3.789426        -1.026583         0.544967
