19
Iteration:  3682
 C         1.355132         2.364640         1.406214
 C         1.877191         0.950737         1.572837
 C         1.707235         0.160826         2.848553
 C         2.060891        -1.242905         2.165823
 O         0.915427        -1.343892         1.182799
 C         1.569456        -0.223397         0.507781
 C         1.095804         0.154466        -0.862930
 C         2.942732        -0.624092         1.073542
 O         3.366939         0.746407         1.286794
 H         0.267529         2.339859         1.398456
 H         1.771214         2.898986         2.271697
 H         1.727283         2.901503         0.564121
 H         2.523595         0.372052         3.545273
 H         0.786745         0.200396         3.448642
 H         2.266207        -2.016620         2.899267
 H         1.076818        -0.521634        -1.725164
 H         0.008777         0.379046        -0.753734
 H         1.525341         1.165904        -1.081589
 H         3.813256        -1.206045         0.711477
