19
Iteration:   325charge 0 multiplicity 1
 C         2.687070         2.131886         0.653470
 C         2.475425         0.830225         1.191027
 C         2.569841         0.369010         2.700771
 C         2.003306        -0.963853         2.391658
 O         0.628004        -0.597526         2.260725
 C         1.083897         0.033931         0.914074
 C         0.047182         0.275167        -0.121181
 C         2.216960        -1.037051         0.807928
 O         3.213383        -0.059327         0.428874
 H         2.092723         2.925629         1.346495
 H         3.758817         2.382911         0.344334
 H         2.144460         2.254719        -0.352742
 H         3.598834         0.532210         3.131675
 H         1.858295         0.921503         3.441174
 H         2.271572        -1.826357         3.083330
 H        -0.377099        -0.647948        -0.601587
 H        -0.927511         0.819482         0.208766
 H         0.378989         0.830173        -0.992211
 H         2.304513        -1.916681         0.251234
