19
Iteration:   770charge 0 multiplicity 1
 C         2.655502         2.289596         0.737225
 C         2.437292         0.866578         1.170333
 C         2.611527         0.453869         2.601457
 C         2.024891        -0.949610         2.420675
 O         0.662951        -0.647694         2.256407
 C         1.019389        -0.032712         0.960961
 C         0.170725         0.254434        -0.179073
 C         2.177181        -1.069083         0.865563
 O         3.133291        -0.147217         0.388747
 H         2.337704         2.909341         1.643857
 H         3.671142         2.450572         0.402538
 H         1.934104         2.526460        -0.055245
 H         3.578299         0.458585         2.849657
 H         2.001149         0.946096         3.403382
 H         2.247037        -1.762463         3.115280
 H        -0.628572        -0.491136        -0.294802
 H        -0.374961         1.176762        -0.220606
 H         0.728181         0.283985        -1.057881
 H         2.173271        -2.101606         0.310365
