19
Iteration:    45
 C         2.598779         2.169869         0.635972
 C         2.395406         0.849417         1.221261
 C         2.781432         0.393888         2.673366
 C         1.988761        -0.894062         2.383422
 O         0.652152        -0.543989         2.084719
 C         1.125904        -0.027697         0.853496
 C        -0.103388         0.347246        -0.025015
 C         2.191847        -1.123304         0.835443
 O         3.264195        -0.170268         0.515844
 H         1.760783         2.761744         1.030555
 H         3.519542         2.680042         0.967721
 H         2.547781         2.062117        -0.457871
 H         3.835262         0.368045         2.799150
 H         2.342557         0.930554         3.535858
 H         2.028959        -1.669572         3.198561
 H        -0.379373        -0.436024        -0.744214
 H        -0.922913         0.514472         0.592390
 H         0.186264         1.241649        -0.555905
 H         2.245324        -2.172290         0.428521
