19
Iteration:  2968
 C         1.679592         2.514642         1.450763
 C         2.004981         0.953022         1.492977
 C         1.937447         0.197280         2.751811
 C         2.105792        -1.144621         2.254818
 O         0.823963        -1.200348         1.474509
 C         1.406577        -0.226406         0.586111
 C         0.772428         0.023010        -0.777892
 C         2.844893        -0.728024         0.966971
 O         3.345205         0.599527         1.012517
 H         1.498859         2.963806         2.373920
 H         2.417588         3.197379         0.981111
 H         0.778941         2.582967         0.851901
 H         2.584609         0.536593         3.522573
 H         0.945240         0.050059         3.210735
 H         2.334960        -1.985675         2.941002
 H         1.574342         0.028919        -1.559509
 H         0.112199        -0.830230        -1.009671
 H         0.147103         0.928718        -0.858250
 H         3.462556        -1.485594         0.384208
