19
Iteration:  4260charge 0 multiplicity 1
 C         1.334056         2.379506         1.513270
 C         1.962853         0.976484         1.566325
 C         1.772271         0.144700         2.849283
 C         2.041212        -1.208688         2.150109
 O         0.870507        -1.230528         1.237921
 C         1.537141        -0.227274         0.496724
 C         1.030675         0.026787        -0.915833
 C         2.981402        -0.628552         0.991058
 O         3.381014         0.717698         1.286285
 H         0.285199         2.412263         1.459821
 H         1.658045         2.706724         2.492716
 H         1.729660         3.068199         0.763490
 H         2.507321         0.572270         3.499015
 H         0.865207         0.292168         3.473065
 H         2.169619        -2.074524         2.854165
 H         0.001165         0.494826        -1.017356
 H         1.731860         0.722662        -1.466081
 H         0.930835        -0.896294        -1.500532
 H         3.767739        -1.207339         0.578734
