19
Iteration:   163charge 0 multiplicity 1
 C         2.595137         2.227189         0.759542
 C         2.498553         0.786378         1.192676
 C         2.663557         0.430158         2.601174
 C         1.986525        -0.951224         2.407398
 O         0.671912        -0.563920         2.200438
 C         1.066556        -0.051063         0.901444
 C         0.005768         0.300553        -0.110218
 C         2.155970        -1.110507         0.806985
 O         3.253773        -0.126784         0.417020
 H         2.034285         2.860699         1.527723
 H         3.673109         2.625997         0.697870
 H         2.091066         2.447438        -0.240275
 H         3.691867         0.371280         3.111687
 H         2.030912         1.239525         3.158197
 H         2.230840        -1.814372         3.064783
 H        -0.791080        -0.499112        -0.031491
 H        -0.552958         1.397780         0.149273
 H         0.558964         0.356319        -1.031846
 H         2.128513        -2.079274         0.346396
