19
Iteration:  4511
 C         1.371460         2.376098         1.573613
 C         1.882496         0.941028         1.632720
 C         1.702180         0.068561         2.836109
 C         2.129999        -1.201364         2.103005
 O         1.025636        -1.287711         1.183341
 C         1.550833        -0.122811         0.452073
 C         0.883350        -0.099296        -0.891036
 C         3.025265        -0.521609         0.971738
 O         3.350178         0.846452         1.342619
 H         0.290197         2.401694         1.601389
 H         1.730463         2.846325         2.499112
 H         1.724639         2.889104         0.632303
 H         2.375281         0.413730         3.638849
 H         0.645186        -0.009529         2.977468
 H         2.314810        -2.046789         2.813299
 H        -0.193970        -0.293795        -0.857982
 H         1.070102         0.845548        -1.346693
 H         1.284777        -0.756483        -1.608369
 H         3.790947        -1.068553         0.434662
