19
Iteration:  1210
 C         2.689143         2.384717         0.808951
 C         2.443275         0.864767         1.161852
 C         2.628863         0.459710         2.627128
 C         2.055676        -1.024318         2.376261
 O         0.579123        -0.578696         2.248888
 C         0.998233        -0.126866         0.925730
 C         0.113266         0.195203        -0.140666
 C         2.170640        -1.126151         0.871299
 O         3.143228        -0.108015         0.349981
 H         2.462527         3.057583         1.585401
 H         3.734368         2.418240         0.634830
 H         2.168930         2.798718        -0.069270
 H         3.784145         0.607434         2.879546
 H         2.010450         0.916414         3.346809
 H         2.274291        -1.747531         3.074294
 H        -0.437207        -0.677794        -0.447066
 H        -0.460242         1.101870        -0.228485
 H         0.844407         0.459700        -0.990288
 H         2.427727        -2.039044         0.408956
