19
Iteration:   425charge 0 multiplicity 1
 C         2.593394         2.300145         0.720522
 C         2.346178         0.883781         1.211002
 C         2.820880         0.313257         2.589495
 C         1.938595        -1.000276         2.437516
 O         0.577654        -0.599921         2.267430
 C         1.015285        -0.022788         0.989987
 C         0.170967         0.236253        -0.227660
 C         2.199973        -1.058249         0.863488
 O         3.191701        -0.061038         0.449153
 H         1.504099         2.863716         0.712452
 H         3.500555         2.858991         1.081723
 H         2.728005         2.275630        -0.443885
 H         3.886812         0.049239         2.427559
 H         2.678288         0.973180         3.545514
 H         1.974170        -1.843556         3.109388
 H        -0.628778        -0.438421        -0.538141
 H        -0.374208         1.269819        -0.289424
 H         0.804530         0.197688        -1.073909
 H         2.154525        -2.018102         0.345532
