19
Iteration:   328
 C         2.676556         2.170982         0.649372
 C         2.483044         0.815380         1.192663
 C         2.592364         0.363988         2.717050
 C         2.010941        -0.962608         2.416838
 O         0.616196        -0.596390         2.237856
 C         1.087791         0.030530         0.903770
 C         0.030419         0.285864        -0.127320
 C         2.220922        -1.043070         0.803274
 O         3.224290        -0.061297         0.436955
 H         2.102917         2.845525         1.239284
 H         3.663264         2.321276         0.341587
 H         2.147619         2.261082        -0.301871
 H         3.578893         0.480813         3.137849
 H         1.897950         0.950032         3.427590
 H         2.196082        -1.813132         3.089213
 H        -0.407939        -0.648806        -0.524683
 H        -0.946356         0.846669         0.292997
 H         0.348842         0.753835        -1.022324
 H         2.317899        -1.967606         0.202266
