19
Iteration:  3003charge 0 multiplicity 1
 C         1.626748         2.397060         1.371920
 C         1.984151         0.993096         1.532929
 C         2.011574         0.243032         2.890664
 C         2.064735        -1.121362         2.272317
 O         0.802195        -1.270421         1.426296
 C         1.397716        -0.260624         0.567948
 C         0.889204         0.070814        -0.805369
 C         2.832101        -0.716686         0.932590
 O         3.299211         0.639967         1.025108
 H         2.031780         3.065188         2.120479
 H         1.787741         2.715156         0.354643
 H         0.576371         2.418487         1.566576
 H         2.873870         0.429880         3.464369
 H         1.020187         0.363201         3.459615
 H         2.219588        -1.990246         2.944092
 H         1.358999        -0.464388        -1.598531
 H        -0.232922        -0.068792        -0.795376
 H         1.133186         1.179883        -0.945877
 H         3.513553        -1.386784         0.387307
