19
Iteration:   307charge 0 multiplicity 1
 C         2.720693         2.307646         0.689157
 C         2.312776         0.910544         1.226656
 C         2.642900         0.458153         2.623989
 C         2.075263        -1.002329         2.383871
 O         0.609194        -0.610158         2.236488
 C         1.028211        -0.090923         0.989986
 C         0.147792         0.264172        -0.138970
 C         2.162014        -1.072788         0.827220
 O         3.164406        -0.157682         0.409993
 H         2.277919         3.106224         1.161393
 H         3.753030         2.128893         0.621319
 H         2.474761         2.486637        -0.340143
 H         3.658567         0.560372         2.935185
 H         2.014715         1.008736         3.384640
 H         2.183146        -1.856305         3.052879
 H        -0.076035        -0.577479        -0.800812
 H        -0.878316         0.646141         0.263762
 H         0.678111         0.972609        -0.771973
 H         2.022590        -2.049036         0.274084
