19
Iteration:  4756charge 0 multiplicity 1
 C         1.157672         2.319404         1.509138
 C         1.817309         0.966201         1.553042
 C         1.823615         0.001755         2.889386
 C         2.191225        -1.226736         2.085295
 O         1.052119        -1.385681         1.232593
 C         1.557977        -0.232318         0.510837
 C         1.025813         0.121685        -0.790151
 C         3.033889        -0.511383         0.941847
 O         3.265394         0.908064         1.226630
 H         0.137149         2.399842         2.035875
 H         1.673899         3.128284         2.125530
 H         1.097061         2.777395         0.538594
 H         2.565367         0.250338         3.620535
 H         0.871294        -0.246529         3.431123
 H         2.668594        -1.986659         2.683426
 H         0.334014        -0.680160        -1.107394
 H         0.341911         0.953583        -0.617888
 H         1.750911         0.331315        -1.530479
 H         3.779870        -1.105206         0.411795
