19
Iteration:  3611
 C         1.341253         2.355381         1.548163
 C         1.897097         0.955510         1.608704
 C         1.748270         0.109554         2.888044
 C         1.965765        -1.153094         2.181377
 O         0.940826        -1.277671         1.170137
 C         1.577695        -0.163612         0.504283
 C         1.107220        -0.041852        -0.968953
 C         3.015478        -0.545473         0.969970
 O         3.313895         0.749787         1.348966
 H         0.226577         2.219163         1.482001
 H         1.643707         3.022717         2.391875
 H         1.739680         2.811567         0.595514
 H         2.560217         0.510194         3.474201
 H         0.814907         0.238256         3.517117
 H         2.112853        -2.192073         2.493188
 H         0.725925        -0.909265        -1.467163
 H         0.232391         0.643346        -1.149903
 H         1.917006         0.468727        -1.483439
 H         3.703998        -1.119660         0.403581
