19
Iteration:  4909charge 0 multiplicity 1
 C         1.160958         2.177393         1.502087
 C         1.818247         0.955549         1.634560
 C         1.865930         0.045139         2.914918
 C         2.240481        -1.156462         2.128925
 O         1.130377        -1.406457         1.286009
 C         1.481026        -0.229629         0.504567
 C         1.012503         0.225330        -0.798164
 C         2.978836        -0.475787         0.862091
 O         3.190377         0.823035         1.205376
 H         0.280765         2.028070         0.880707
 H         0.990475         2.867664         2.400052
 H         1.780642         2.736153         0.785588
 H         2.758283         0.428574         3.442518
 H         0.998730         0.099996         3.551382
 H         2.541703        -2.220370         2.467888
 H         0.153764         0.967973        -0.682358
 H         1.863042         0.748258        -1.157061
 H         0.625607        -0.468584        -1.467307
 H         3.765683        -0.912515         0.268266
