19
Iteration:  3706
 C         1.471736         2.408635         1.562450
 C         1.935017         0.962191         1.600547
 C         1.617592         0.133001         2.853393
 C         2.060041        -1.233200         2.149354
 O         0.924775        -1.240111         1.134656
 C         1.584670        -0.143509         0.477306
 C         1.001821        -0.119628        -0.925069
 C         2.995936        -0.606077         0.901041
 O         3.337373         0.809298         1.422195
 H         0.407922         2.576222         1.761852
 H         2.191061         3.001989         2.183483
 H         1.701762         2.791243         0.600638
 H         2.172420         0.488122         3.682275
 H         0.517227         0.010539         3.231641
 H         2.349866        -1.968456         2.838975
 H         1.031067        -0.976529        -1.544890
 H        -0.135269        -0.022457        -0.784885
 H         1.361420         0.818159        -1.452067
 H         3.794649        -1.196342         0.482126
