19
Iteration:  3773
 C         1.489046         2.380309         1.650106
 C         1.859382         0.950266         1.552315
 C         1.643942         0.145628         2.847376
 C         2.070673        -1.100260         2.188258
 O         0.890629        -1.359303         1.264354
 C         1.498364        -0.238346         0.458777
 C         1.174730         0.036146        -0.948325
 C         2.966727        -0.634162         0.962606
 O         3.255237         0.789939         1.193286
 H         0.544901         2.536183         2.187489
 H         2.301937         2.816760         2.269543
 H         1.479777         2.972829         0.706096
 H         2.399758         0.474315         3.598212
 H         0.563656         0.201391         3.216439
 H         2.243615        -2.078771         2.694516
 H         1.252239        -0.799013        -1.653173
 H         0.098431         0.394745        -1.143720
 H         2.037282         0.737371        -1.074704
 H         3.886716        -1.180483         0.675884
