19
Iteration:  1066charge 0 multiplicity 1
 C         2.574759         2.254065         0.867708
 C         2.438692         0.783406         1.132997
 C         2.713533         0.390495         2.699796
 C         1.992377        -0.946315         2.410221
 O         0.651525        -0.446271         2.204650
 C         1.119551        -0.068532         0.881341
 C         0.050595         0.163042        -0.144773
 C         2.215385        -1.050587         0.794410
 O         3.183691        -0.114415         0.357560
 H         1.748474         2.689477         1.515256
 H         3.577233         2.582572         1.112313
 H         2.321959         2.456656        -0.223886
 H         3.775691         0.429652         2.955679
 H         1.975074         1.049502         3.418080
 H         2.014477        -1.858494         3.169123
 H        -0.860778        -0.427071         0.050922
 H        -0.201863         1.265031        -0.296232
 H         0.435375        -0.048999        -1.187253
 H         2.163149        -2.033815         0.129875
