19
Iteration:  3061charge 0 multiplicity 1
 C         1.603069         2.430728         1.400278
 C         1.948096         0.997267         1.485948
 C         1.839161         0.175329         2.865298
 C         2.080790        -1.181767         2.212887
 O         0.903907        -1.294467         1.406539
 C         1.488786        -0.153518         0.526742
 C         0.717895         0.033336        -0.809128
 C         2.891897        -0.708063         0.963424
 O         3.440272         0.687153         1.146481
 H         2.419675         3.041042         0.930966
 H         0.700477         2.624406         0.800527
 H         1.249245         2.726695         2.420806
 H         2.503243         0.538212         3.771329
 H         0.815424         0.417204         3.115011
 H         2.327177        -2.132134         2.682742
 H        -0.172106        -0.700057        -0.808388
 H         0.352408         1.056262        -1.020615
 H         1.416345        -0.184548        -1.676589
 H         3.635391        -1.349620         0.529267
