19
Iteration:    33charge 0 multiplicity 1
 C         2.546012         2.223802         0.660600
 C         2.532145         0.842363         1.238435
 C         2.692941         0.398638         2.639239
 C         1.998437        -1.009704         2.423712
 O         0.621730        -0.473768         2.106523
 C         1.140377         0.009120         0.836208
 C        -0.060975         0.327870        -0.012909
 C         2.231388        -1.066437         0.810510
 O         3.272297        -0.243476         0.506692
 H         1.644018         2.848006         0.926929
 H         3.520185         2.782546         0.736288
 H         2.403271         2.084588        -0.472715
 H         3.791922         0.292609         2.881635
 H         2.096543         0.997160         3.349477
 H         2.024952        -1.859057         3.101223
 H        -0.370790        -0.566561        -0.479920
 H        -0.748761         0.518325         0.794461
 H        -0.174530         1.073396        -0.697025
 H         2.121176        -1.965530         0.240871
