19
Iteration:  2639
 C         1.981581         2.512646         1.263235
 C         2.112902         0.970459         1.442978
 C         2.189872         0.214321         2.872034
 C         2.027136        -1.143709         2.281721
 O         0.690494        -1.058523         1.667947
 C         1.279732        -0.197183         0.624979
 C         0.525382        -0.062624        -0.618977
 C         2.727710        -0.755620         0.835443
 O         3.338252         0.515939         0.848152
 H         0.964378         2.943171         1.227628
 H         2.689670         2.932680         1.962334
 H         2.357274         2.710654         0.204162
 H         3.133072         0.465584         3.366312
 H         1.312538         0.420566         3.487904
 H         2.221884        -2.060005         2.873390
 H        -0.512615         0.300128        -0.565395
 H         1.126326         0.618369        -1.220794
 H         0.491697        -1.063497        -1.037027
 H         3.197642        -1.602014         0.365715
