19
Iteration:  3216
 C         1.485321         2.450319         1.373476
 C         1.840109         0.971487         1.686899
 C         1.721749         0.107120         2.956410
 C         2.073855        -1.179121         2.183613
 O         1.003042        -1.383908         1.288631
 C         1.480024        -0.269030         0.528847
 C         0.948241         0.091795        -0.919865
 C         2.949586        -0.596554         0.945009
 O         3.342916         0.792644         1.196714
 H         0.909076         2.905155         2.139562
 H         2.424022         3.028493         1.535329
 H         0.982230         2.519061         0.398908
 H         2.456701         0.657149         3.648171
 H         0.772741        -0.185363         3.458474
 H         2.312020        -1.977411         2.868502
 H         1.745190        -0.249581        -1.726597
 H         0.113776        -0.625955        -1.140811
 H         0.644597         1.129939        -1.053048
 H         3.702474        -1.212695         0.392645
