19
Iteration:  3012charge 0 multiplicity 1
 C         1.561452         2.447698         1.356496
 C         2.008399         1.009179         1.491002
 C         1.962415         0.179589         2.881196
 C         2.088779        -1.199176         2.231615
 O         0.794349        -1.229649         1.420534
 C         1.455220        -0.234987         0.621086
 C         0.843864         0.060363        -0.799778
 C         2.857988        -0.736556         0.984794
 O         3.329994         0.655621         1.050990
 H         2.218264         3.154921         1.833282
 H         1.650523         2.703944         0.278940
 H         0.541501         2.470327         1.733429
 H         2.851284         0.470239         3.312683
 H         1.189723         0.350273         3.707572
 H         2.124230        -2.059553         2.943796
 H         1.182384        -0.645043        -1.559818
 H        -0.260786         0.225240        -0.909693
 H         1.195696         1.058629        -1.152188
 H         3.560423        -1.419064         0.409286
