19
Iteration:   467charge 0 multiplicity 1
 C         2.614331         2.292602         0.781640
 C         2.483882         0.833271         1.109291
 C         2.522053         0.421387         2.553507
 C         1.950472        -0.979448         2.428417
 O         0.635832        -0.509533         2.195673
 C         1.142890        -0.032603         0.864452
 C         0.041816         0.256659        -0.007706
 C         2.237017        -1.121140         0.842457
 O         3.286791        -0.206209         0.394523
 H         1.817681         2.930337         1.321925
 H         3.640291         2.654724         1.028992
 H         2.601017         2.744826        -0.242859
 H         3.528291         0.478802         2.997257
 H         1.883676         1.099790         3.261976
 H         2.051365        -1.859077         3.085268
 H        -0.314458        -0.712677        -0.431908
 H        -0.862223         0.706973         0.506719
 H         0.306886         0.824023        -0.847939
 H         2.248547        -2.031638         0.350058
