19
Iteration:   348charge 0 multiplicity 1
 C         2.579088         2.303074         0.667597
 C         2.416685         0.932490         1.244944
 C         2.711991         0.389899         2.643907
 C         1.921700        -0.967147         2.405401
 O         0.583793        -0.561865         2.047979
 C         1.121951        -0.112013         0.854029
 C         0.007895         0.267926        -0.011056
 C         2.275244        -1.102687         0.862861
 O         3.285202        -0.200823         0.495001
 H         2.063955         3.179929         1.339053
 H         3.661954         2.579703         0.519760
 H         2.185687         2.485495        -0.396541
 H         3.818414         0.344865         2.772268
 H         2.362368         0.944717         3.648130
 H         2.047635        -1.753022         3.205878
 H        -0.832081        -0.441027        -0.255027
 H        -0.612936         1.230389         0.365424
 H         0.259954         0.585479        -0.979377
 H         2.295818        -2.061573         0.419923
