19
Iteration:  3100
 C         1.667139         2.436794         1.476042
 C         1.923301         0.963706         1.544741
 C         1.850951         0.285872         2.913519
 C         2.063162        -1.153139         2.188751
 O         0.931771        -1.411245         1.328479
 C         1.438151        -0.254043         0.526993
 C         0.853031        -0.010118        -0.841833
 C         2.870843        -0.582844         0.952647
 O         3.260243         0.733179         1.126042
 H         2.046256         2.887910         0.529810
 H         0.616468         2.728866         1.569987
 H         2.309627         2.837892         2.221246
 H         2.578599         0.595511         3.566349
 H         0.803198         0.244121         3.323070
 H         2.424267        -2.015677         2.778477
 H        -0.099020         0.390282        -0.744157
 H         1.529153         0.677783        -1.365861
 H         0.804484        -0.952560        -1.395188
 H         3.495176        -1.340765         0.449590
