19
Iteration:  1484charge 0 multiplicity 1
 C         2.586815         2.392359         0.819356
 C         2.480999         0.862307         1.145489
 C         2.666981         0.412529         2.589820
 C         2.072695        -0.958023         2.394313
 O         0.528168        -0.573299         2.131280
 C         1.043139        -0.211088         0.849498
 C         0.068172         0.273471        -0.137290
 C         2.247107        -1.114962         0.929462
 O         3.226937        -0.163706         0.465142
 H         2.226946         2.883335         1.734634
 H         3.558258         2.814456         0.411015
 H         1.937934         2.666585        -0.029008
 H         3.820391         0.580725         2.595551
 H         2.227789         0.947742         3.345049
 H         2.123281        -1.711775         3.258824
 H        -0.777571        -0.445479        -0.038848
 H        -0.463623         1.201162         0.030377
 H         0.429454         0.490077        -1.150336
 H         2.410487        -2.084814         0.551854
