19
Iteration:  2264charge 0 multiplicity 1
 C         2.201530         2.433219         1.096251
 C         2.291104         0.878773         1.276066
 C         2.345821         0.430145         2.762330
 C         2.098999        -1.039742         2.358382
 O         0.659902        -0.875010         1.836467
 C         1.151913        -0.129008         0.694464
 C         0.188439         0.094871        -0.425017
 C         2.566812        -1.018719         0.838466
 O         3.426845         0.202226         0.742017
 H         2.528379         2.666436         0.112719
 H         1.174484         2.846505         1.180945
 H         2.733502         2.956936         1.932991
 H         3.412116         0.675107         3.138891
 H         1.645310         0.809115         3.405199
 H         2.300251        -1.959134         2.955306
 H         0.488144         0.725569        -1.220460
 H        -0.143440        -0.895532        -0.786646
 H        -0.791353         0.544353        -0.144165
 H         2.710206        -1.962639         0.296427
