19
Iteration:  2020charge 0 multiplicity 1
 C         2.348624         2.372401         0.975798
 C         2.372528         0.924734         1.269272
 C         2.594382         0.386632         2.748643
 C         1.987428        -0.988321         2.391628
 O         0.592104        -0.743644         2.022573
 C         1.141294        -0.140596         0.839124
 C         0.187094         0.113321        -0.326056
 C         2.361198        -1.066679         0.857377
 O         3.330691         0.106166         0.480776
 H         1.348939         2.545120         0.521470
 H         2.614508         2.881722         1.879416
 H         3.087954         2.648066         0.250535
 H         3.582414         0.529350         3.068003
 H         1.809960         0.992483         3.333852
 H         2.137469        -1.804163         3.135315
 H         0.509007         0.925898        -0.997155
 H         0.169632        -0.738620        -1.003619
 H        -0.840898         0.358528        -0.131904
 H         2.478326        -1.919567         0.162803
