19
Iteration:   672
 C         2.665318         2.277377         0.690332
 C         2.427036         0.829354         1.136183
 C         2.631554         0.476174         2.630260
 C         2.039583        -0.952267         2.472933
 O         0.564663        -0.652264         2.163423
 C         1.060932        -0.157103         0.858846
 C         0.035661         0.352402        -0.099275
 C         2.317913        -1.126379         0.854827
 O         3.195167        -0.091375         0.471080
 H         2.206159         2.912222         1.449722
 H         3.749425         2.354152         0.518984
 H         2.263062         2.357152        -0.335193
 H         3.646877         0.583568         2.883891
 H         1.981191         1.029808         3.414286
 H         2.146553        -1.753443         3.285144
 H        -0.610216        -0.393645        -0.644713
 H        -0.692647         0.832375         0.538393
 H         0.365345         1.108738        -0.757148
 H         2.218547        -2.095543         0.305891
