19
Iteration:  4084charge 0 multiplicity 1
 C         1.469004         2.475244         1.693363
 C         1.966138         1.021989         1.520168
 C         1.758228         0.204753         2.830260
 C         2.024769        -1.157804         2.151125
 O         0.858624        -1.272253         1.284651
 C         1.494447        -0.177225         0.490818
 C         1.143461        -0.131759        -0.913435
 C         2.845463        -0.630786         0.915254
 O         3.358628         0.691348         1.213607
 H         0.498593         2.475874         1.165881
 H         1.423157         2.793613         2.768286
 H         2.141691         3.158577         1.179479
 H         2.515788         0.441588         3.557371
 H         0.684813         0.161710         3.241453
 H         1.950280        -2.030563         2.786459
 H         1.529046        -0.916703        -1.597072
 H         0.022253        -0.150934        -0.953776
 H         1.463188         0.927238        -1.315915
 H         3.462508        -1.374404         0.280414
