19
Iteration:  3828charge 0 multiplicity 1
 C         1.296792         2.202737         1.268086
 C         1.918026         0.921296         1.611957
 C         1.888258         0.073370         2.931327
 C         1.962779        -1.256327         2.243612
 O         0.871856        -1.229367         1.201156
 C         1.616884        -0.113515         0.440758
 C         1.012798         0.223150        -0.840659
 C         2.972381        -0.605635         0.965368
 O         3.392463         0.730746         1.396222
 H         0.271162         1.933046         1.023194
 H         1.358441         3.020576         1.978827
 H         1.839200         2.644224         0.363893
 H         2.654667         0.476843         3.695642
 H         0.903501         0.292785         3.396218
 H         2.014977        -2.306567         2.674917
 H         0.830053        -0.692824        -1.498118
 H         0.052686         0.821138        -0.515353
 H         1.625505         1.030303        -1.306967
 H         3.794293        -1.140996         0.526584
