19
Iteration:  3928
 C         1.442511         2.494823         1.672265
 C         1.924415         0.974514         1.559830
 C         1.696498         0.131615         2.875953
 C         1.986138        -1.189831         2.084154
 O         0.868044        -1.243529         1.237139
 C         1.476795        -0.168366         0.509023
 C         1.155809        -0.162292        -0.973432
 C         2.882462        -0.537236         0.921846
 O         3.404662         0.719393         1.288545
 H         0.631882         2.682309         2.373196
 H         2.211953         3.092442         2.106223
 H         1.224748         2.826186         0.619534
 H         2.534626         0.536651         3.592252
 H         0.805490        -0.001815         3.418160
 H         2.371472        -2.093719         2.566231
 H         1.512013        -1.199045        -1.406651
 H         0.033003        -0.059059        -1.022639
 H         1.471995         0.694972        -1.593604
 H         3.645011        -1.164956         0.476325
