19
Iteration:  2597
 C         2.013248         2.399720         1.282825
 C         2.124500         0.956551         1.399325
 C         2.086343         0.393302         2.837916
 C         2.056165        -1.023236         2.287987
 O         0.776216        -1.080062         1.597728
 C         1.296247        -0.180353         0.650873
 C         0.355863        -0.000074        -0.581713
 C         2.725391        -0.853933         0.845450
 O         3.430032         0.412160         0.882447
 H         1.247467         2.835560         0.638312
 H         1.917010         2.590590         2.334691
 H         2.997510         2.731395         0.850156
 H         3.007995         0.574877         3.419440
 H         1.204998         0.705587         3.310104
 H         2.344151        -1.946071         2.841759
 H        -0.416154        -0.775635        -0.457770
 H        -0.121205         0.955918        -0.882683
 H         0.959754        -0.199929        -1.356699
 H         3.245854        -1.648771         0.283960
