19
Iteration:  4751charge 0 multiplicity 1
 C         1.148897         2.286791         1.550541
 C         1.827264         0.995383         1.605321
 C         1.859492         0.003649         2.871429
 C         2.144047        -1.217888         2.101461
 O         1.076230        -1.335045         1.214026
 C         1.564814        -0.221183         0.560015
 C         0.993335         0.064792        -0.819701
 C         2.995886        -0.490228         0.889985
 O         3.285646         0.889750         1.228993
 H         0.148261         2.355514         1.922092
 H         1.542204         3.019006         2.223342
 H         1.154021         2.678510         0.499645
 H         2.642172         0.381253         3.583458
 H         0.882000        -0.200795         3.298204
 H         2.543325        -2.068778         2.692175
 H         0.506153        -0.834553        -1.221739
 H         0.301420         0.943238        -0.845215
 H         1.851246         0.392164        -1.492023
 H         3.824063        -1.150375         0.477519
