19
Iteration:  4472charge 0 multiplicity 1
 C         1.317682         2.328803         1.366180
 C         1.834201         0.984917         1.527418
 C         1.724750         0.153424         2.751388
 C         2.126651        -1.240968         2.138199
 O         1.074275        -1.424299         1.181285
 C         1.626896        -0.266212         0.527990
 C         0.859897         0.203367        -0.746959
 C         2.995723        -0.544210         0.965378
 O         3.353606         0.791235         1.416051
 H         0.187736         2.414703         1.449904
 H         1.662791         3.001752         2.145979
 H         1.680182         2.749944         0.449351
 H         2.333700         0.404954         3.645704
 H         0.769525        -0.025408         3.294072
 H         2.392684        -2.086733         2.771853
 H         0.046633        -0.499163        -0.955740
 H         0.353176         1.166924        -0.442759
 H         1.661121         0.301894        -1.580476
 H         3.830809        -1.290185         0.644278
