19
Iteration:   768
 C         2.647326         2.294893         0.756223
 C         2.428492         0.865508         1.157851
 C         2.625501         0.463422         2.613657
 C         2.019648        -0.953865         2.393482
 O         0.668197        -0.643911         2.250982
 C         1.021194        -0.033610         0.958013
 C         0.186949         0.246366        -0.167265
 C         2.155631        -1.067109         0.883195
 O         3.120100        -0.141591         0.405084
 H         2.405250         2.929237         1.562547
 H         3.669089         2.474580         0.299992
 H         1.956422         2.509944        -0.082675
 H         3.652209         0.371626         2.869173
 H         2.074280         0.949837         3.355133
 H         2.235787        -1.806742         3.147694
 H        -0.598938        -0.562274        -0.312482
 H        -0.391334         1.087978        -0.257525
 H         0.788869         0.344311        -1.106732
 H         2.142035        -2.081449         0.233536
