19
Iteration:  2771
 C         1.960366         2.399552         1.359954
 C         2.047748         0.973377         1.397638
 C         1.957425         0.339501         2.889347
 C         1.998149        -1.098608         2.301480
 O         0.788990        -1.207361         1.561100
 C         1.354772        -0.220694         0.579491
 C         0.575646        -0.016329        -0.648371
 C         2.791953        -0.747170         0.838528
 O         3.383215         0.562826         0.905689
 H         2.939783         2.719225         1.240503
 H         1.260487         2.765034         0.616733
 H         1.477103         2.812247         2.272647
 H         2.860918         0.748045         3.427279
 H         1.136407         0.541971         3.475289
 H         2.521840        -1.963272         2.753997
 H         0.990271        -0.565803        -1.579587
 H        -0.468274        -0.238788        -0.458082
 H         0.616865         1.008860        -0.843472
 H         3.255079        -1.631962         0.343194
