19
Iteration:  4287charge 0 multiplicity 1
 C         1.295966         2.276930         1.340796
 C         1.997701         0.963804         1.593288
 C         1.704374         0.159885         2.881002
 C         2.056096        -1.199760         2.157915
 O         0.928622        -1.268728         1.196588
 C         1.642237        -0.215226         0.485978
 C         0.948352         0.195927        -0.805136
 C         2.981547        -0.621710         0.993878
 O         3.424208         0.672780         1.337928
 H         0.176076         2.012832         1.349042
 H         1.467724         2.863205         2.273057
 H         1.557121         2.925901         0.477243
 H         2.399837         0.641678         3.644459
 H         0.765607         0.232244         3.380098
 H         2.207423        -1.959918         2.886749
 H         0.382620         1.105859        -0.766940
 H         1.503134         0.330525        -1.699463
 H         0.225752        -0.625668        -0.985158
 H         3.750487        -1.270867         0.452587
