19
Iteration:  3723
 C         1.594692         2.488734         1.634055
 C         1.897797         1.064275         1.686028
 C         1.615992         0.093055         2.838894
 C         2.070588        -1.125928         2.083786
 O         0.920470        -1.308411         1.138758
 C         1.549619        -0.245246         0.395688
 C         0.963799        -0.186881        -1.001631
 C         2.944760        -0.477025         1.017804
 O         3.350504         0.775800         1.420699
 H         0.627341         2.656373         2.129173
 H         2.249760         3.080857         2.267914
 H         1.503347         2.850894         0.569215
 H         2.219137         0.338466         3.772264
 H         0.591514        -0.001032         2.943720
 H         2.279329        -2.184857         2.435036
 H         1.184759        -1.249392        -1.372652
 H        -0.104112        -0.231546        -0.866799
 H         1.396617         0.466304        -1.728059
 H         3.656665        -1.084975         0.383732
