19
Iteration:  1542
 C         2.631114         2.402137         0.673426
 C         2.452430         0.874619         1.228676
 C         2.707593         0.344579         2.631950
 C         1.971981        -1.031038         2.404711
 O         0.629555        -0.606815         2.242504
 C         1.015641        -0.125076         0.921963
 C         0.062694         0.216368        -0.197827
 C         2.233906        -1.033728         0.828364
 O         3.167176        -0.056847         0.470745
 H         1.741761         3.061108         0.790328
 H         3.284070         2.948289         1.331286
 H         2.865195         2.466623        -0.340705
 H         3.741528         0.217990         2.742185
 H         2.259715         0.920554         3.473246
 H         2.051645        -1.898093         2.987671
 H        -0.944400        -0.152955         0.010925
 H         0.249154         1.273309        -0.465912
 H         0.308011        -0.547986        -0.871366
 H         2.354906        -2.006935         0.381325
