19
Iteration:   159
 C         2.580613         2.230895         0.770632
 C         2.503848         0.789455         1.232153
 C         2.696743         0.436175         2.602835
 C         1.968048        -0.943805         2.405158
 O         0.649966        -0.542391         2.172278
 C         1.077237        -0.037875         0.880088
 C        -0.014853         0.283793        -0.098783
 C         2.177027        -1.124718         0.835354
 O         3.258848        -0.130086         0.397286
 H         2.148596         2.860369         1.531374
 H         3.545055         2.607769         0.701136
 H         2.105895         2.343491        -0.196317
 H         3.692348         0.299100         3.081765
 H         2.205113         1.124780         3.208753
 H         2.186047        -1.723096         3.076132
 H        -0.710066        -0.558555        -0.009591
 H        -0.597308         1.248178         0.144060
 H         0.455160         0.472114        -1.169005
 H         2.134706        -2.086209         0.328770
