19
Iteration:  4005charge 0 multiplicity 1
 C         1.498606         2.439507         1.300377
 C         1.923597         0.930871         1.635901
 C         1.658080         0.145762         2.884938
 C         2.077391        -1.224104         2.199942
 O         0.985455        -1.430249         1.261229
 C         1.542149        -0.260634         0.531321
 C         1.007371         0.267417        -0.796918
 C         2.898335        -0.590472         0.958762
 O         3.285904         0.701854         1.276801
 H         0.398451         2.446339         1.163809
 H         1.674692         3.009064         2.202737
 H         2.029207         2.773109         0.404958
 H         2.388042         0.398898         3.732484
 H         0.604597         0.243822         3.129326
 H         2.542541        -2.037363         2.762525
 H         0.773052        -0.578391        -1.576418
 H         0.194743         1.019894        -0.733500
 H         1.951167         0.715064        -1.305844
 H         3.419710        -1.401789         0.382218
