19
Iteration:  4572
 C         1.280126         2.299955         1.623594
 C         1.809336         0.949003         1.607196
 C         1.807495         0.096289         2.897053
 C         2.142577        -1.167906         2.169995
 O         0.917681        -1.378730         1.284154
 C         1.543247        -0.255419         0.495563
 C         1.179976         0.071587        -0.909649
 C         2.964778        -0.559136         0.898650
 O         3.235471         0.876163         1.112111
 H         0.338933         2.215916         2.154786
 H         2.003049         2.839528         2.309111
 H         1.130644         2.973922         0.800493
 H         2.439236         0.559593         3.626483
 H         0.767661         0.303324         3.349237
 H         2.404608        -2.072158         2.690608
 H         0.928285         1.179875        -0.986726
 H         2.154890        -0.046108        -1.499848
 H         0.419039        -0.656686        -1.263611
 H         3.812343        -1.028494         0.420803
