19
Iteration:  2240charge 0 multiplicity 1
 C         2.180769         2.410366         0.949711
 C         2.266749         0.907815         1.392832
 C         2.344784         0.341486         2.791922
 C         1.976568        -1.026335         2.359714
 O         0.664116        -0.840609         1.887306
 C         1.219168        -0.238235         0.758192
 C         0.335556         0.126292        -0.331858
 C         2.567004        -0.945402         0.797625
 O         3.354986         0.224682         0.599626
 H         2.988785         2.613291         0.258480
 H         1.273691         2.770441         0.487588
 H         2.235991         3.009452         1.907530
 H         3.346344         0.261816         3.217131
 H         1.652359         0.793214         3.465428
 H         2.164878        -1.847678         3.038472
 H         0.332102         1.172196        -0.528489
 H         0.345506        -0.441066        -1.250515
 H        -0.619365        -0.047101         0.006354
 H         2.863150        -1.903939         0.325958
