19
Iteration:  3934
 C         1.372686         2.465786         1.637163
 C         1.902471         1.016409         1.590187
 C         1.743218         0.129596         2.901008
 C         2.040315        -1.175673         2.161434
 O         0.885969        -1.190914         1.191644
 C         1.440592        -0.165205         0.459858
 C         1.135280        -0.115562        -0.976323
 C         2.875159        -0.595316         0.950157
 O         3.453492         0.682923         1.285917
 H         0.542692         2.662427         2.341585
 H         2.229058         3.082387         2.046019
 H         1.118620         2.691865         0.602168
 H         2.477503         0.286916         3.625820
 H         0.696558         0.159673         3.384383
 H         2.331714        -2.194866         2.535945
 H         1.446032        -1.062645        -1.278137
 H         0.039453        -0.205738        -1.053199
 H         1.588031         0.677824        -1.554786
 H         3.567179        -1.240412         0.363147
