19
Iteration:  3969charge 0 multiplicity 1
 C         1.334205         2.261004         1.407764
 C         1.907624         0.943715         1.488858
 C         1.770699         0.114981         2.860801
 C         2.024505        -1.193292         2.203598
 O         0.839082        -1.221651         1.265784
 C         1.596964        -0.281589         0.495577
 C         1.085818         0.204277        -0.819524
 C         2.954362        -0.640192         1.025023
 O         3.390166         0.738178         1.296611
 H         0.379384         2.272093         1.892535
 H         2.048369         3.001375         1.761425
 H         1.145790         2.716036         0.382433
 H         2.664081         0.252034         3.501569
 H         0.895797         0.520547         3.325337
 H         2.101908        -2.268794         2.578479
 H         1.163632        -0.599007        -1.593122
 H         0.015112         0.628419        -0.871819
 H         1.719204         0.995302        -1.148609
 H         3.693326        -1.248879         0.569619
