19
Iteration:  3359charge 0 multiplicity 1
 C         1.244168         2.343771         1.467129
 C         1.859533         0.973375         1.580764
 C         1.687019         0.162333         2.848642
 C         2.066234        -1.174386         2.196767
 O         0.945246        -1.290572         1.161106
 C         1.656359        -0.140150         0.506078
 C         1.093015         0.097892        -0.852155
 C         3.041617        -0.666938         1.040488
 O         3.369749         0.691858         1.291118
 H         1.195064         2.783910         0.463739
 H         0.149395         2.213731         1.691700
 H         1.616792         2.952824         2.275233
 H         2.241634         0.648830         3.647618
 H         0.590575         0.054981         3.261207
 H         2.346109        -2.116035         2.656430
 H         0.309706        -0.665332        -1.004139
 H         0.638150         1.133110        -1.039953
 H         1.881918        -0.040001        -1.658163
 H         3.808759        -1.095854         0.356119
