19
Iteration:    93charge 0 multiplicity 1
 C         2.639280         2.218748         0.741035
 C         2.427887         0.824986         1.125932
 C         2.662624         0.510395         2.727756
 C         2.115548        -0.902349         2.432262
 O         0.646167        -0.592496         2.198946
 C         1.094248        -0.049858         0.999548
 C         0.121043         0.296975        -0.142324
 C         2.101274        -1.069043         0.848013
 O         3.096964        -0.210393         0.298743
 H         1.987322         2.837230         1.336939
 H         3.654219         2.324059         1.025125
 H         2.527156         2.490861        -0.294337
 H         3.724401         0.450681         3.056108
 H         2.066515         1.084137         3.403964
 H         2.231674        -1.797267         3.052383
 H         0.144578        -0.605796        -0.830604
 H        -1.009576         0.362418         0.226177
 H         0.560548         1.254131        -0.764159
 H         1.844278        -2.077217         0.377754
