19
Iteration:  4171
 C         1.462936         2.352423         1.457346
 C         2.059811         0.964789         1.487677
 C         1.596204         0.138115         2.874401
 C         1.970849        -1.221330         2.182248
 O         0.882780        -1.262994         1.187810
 C         1.614086        -0.193423         0.452269
 C         0.904703         0.049755        -0.849853
 C         3.063811        -0.580832         0.973040
 O         3.416267         0.727477         1.388704
 H         0.675873         2.566196         2.156730
 H         2.319101         3.030029         1.622257
 H         1.184475         2.698814         0.503408
 H         2.207232         0.548530         3.684983
 H         0.467966         0.237206         3.023212
 H         2.009785        -2.046615         2.856154
 H         0.275146        -0.811249        -1.132537
 H         0.109839         0.795455        -0.584202
 H         1.620546         0.192600        -1.742154
 H         3.869870        -1.314418         0.798387
