19
Iteration:  3718
 C         1.573532         2.454116         1.597788
 C         1.898475         1.050839         1.704186
 C         1.611485         0.108386         2.834039
 C         2.127752        -1.147542         2.103959
 O         0.901127        -1.290767         1.133799
 C         1.573842        -0.223022         0.396133
 C         0.974849        -0.207512        -0.993340
 C         2.913258        -0.530796         1.000947
 O         3.366672         0.798977         1.426491
 H         0.598627         2.618566         2.100419
 H         2.226124         3.022511         2.313210
 H         1.538134         2.817620         0.582643
 H         2.195007         0.326651         3.702943
 H         0.443709         0.081647         2.992810
 H         2.182914        -2.131233         2.485830
 H         1.239335        -1.147507        -1.411878
 H        -0.117188         0.014026        -0.735619
 H         1.262153         0.599315        -1.738470
 H         3.657606        -0.939204         0.358465
