19
Iteration:  4399charge 0 multiplicity 1
 C         1.290012         2.404350         1.756323
 C         1.909554         0.946636         1.534093
 C         1.836505         0.144757         2.871858
 C         2.049503        -1.118145         2.139989
 O         0.938371        -1.287379         1.236331
 C         1.548363        -0.195896         0.454089
 C         1.086637        -0.104331        -1.053644
 C         2.907316        -0.578064         0.946271
 O         3.332722         0.767768         1.264065
 H         0.247694         2.563464         2.169710
 H         1.768180         3.082961         2.553363
 H         1.245296         2.919162         0.771032
 H         2.655766         0.560676         3.458163
 H         0.813449         0.348044         3.393668
 H         2.395943        -1.978003         2.703468
 H         1.901722        -0.560208        -1.612864
 H         0.287258        -0.844708        -1.041538
 H         0.878412         0.934069        -1.237481
 H         3.520217        -1.259946         0.380769
