19
Iteration:  1273charge 0 multiplicity 1
 C         2.464311         2.332077         0.781950
 C         2.467420         0.882393         1.106947
 C         2.634320         0.390564         2.632250
 C         1.971519        -1.000475         2.453223
 O         0.648595        -0.544923         2.194011
 C         1.152055        -0.117785         0.822289
 C        -0.000463         0.323561        -0.133535
 C         2.257550        -1.138610         0.871338
 O         3.299566        -0.163408         0.437010
 H         1.892329         2.887216         1.566424
 H         3.489050         2.670022         0.735541
 H         2.079224         2.478460        -0.280500
 H         3.666801         0.394720         2.849413
 H         2.146938         0.895328         3.457964
 H         2.100850        -1.827367         3.170525
 H        -0.892191        -0.003663         0.328534
 H        -0.016249         1.430074        -0.126540
 H         0.161460        -0.051714        -1.168292
 H         2.412647        -2.166489         0.296380
