19
Iteration:  1655charge 0 multiplicity 1
 C         2.621816         2.362959         0.757931
 C         2.296771         0.876978         1.207488
 C         2.602745         0.347543         2.664340
 C         2.003797        -1.025772         2.347028
 O         0.630142        -0.564667         2.272192
 C         1.111496        -0.041993         0.920144
 C         0.070763         0.203033        -0.197186
 C         2.327489        -1.066500         0.878909
 O         3.206111        -0.086315         0.366211
 H         1.916851         3.043083         1.141619
 H         3.498668         2.630670         1.249131
 H         2.503244         2.367955        -0.335575
 H         3.666702         0.462612         2.788280
 H         2.152644         0.830228         3.529621
 H         2.231380        -1.958396         3.001390
 H        -0.852452         0.697449        -0.022980
 H         0.715644         0.700956        -0.897804
 H        -0.430413        -0.658484        -0.687745
 H         2.364369        -2.135396         0.419711
