19
Iteration:   130charge 0 multiplicity 1
 C         2.580571         2.392684         0.714733
 C         2.373742         0.872113         1.134161
 C         2.786679         0.253730         2.621925
 C         1.913755        -0.979755         2.452420
 O         0.606678        -0.392605         2.144431
 C         1.087418        -0.091836         0.864328
 C         0.046178         0.162096        -0.071313
 C         2.213996        -1.137832         0.864554
 O         3.246743        -0.130045         0.466727
 H         2.185105         3.045910         1.574099
 H         3.698175         2.669152         0.767907
 H         2.162904         2.696567        -0.321592
 H         3.897184        -0.153719         2.531028
 H         2.673218         0.960788         3.523983
 H         1.971420        -1.854660         3.097619
 H        -0.362347        -0.735778        -0.567652
 H        -0.886814         0.738706         0.457949
 H         0.270970         0.851811        -0.867650
 H         2.272023        -2.070122         0.396784
