19
Iteration:  2039
 C         2.244253         2.362483         0.927986
 C         2.387893         0.879953         1.277287
 C         2.512223         0.351855         2.779443
 C         2.002874        -1.036877         2.381749
 O         0.563756        -0.675864         1.979760
 C         1.269754        -0.116495         0.775095
 C         0.189366         0.131006        -0.259018
 C         2.443264        -0.986954         0.825412
 O         3.344820         0.057837         0.499166
 H         1.195300         2.542086         0.487316
 H         2.532276         3.065717         1.826502
 H         2.859140         2.699016         0.068005
 H         3.605556         0.188622         3.140882
 H         1.917182         0.867877         3.552187
 H         2.046353        -1.907779         3.037825
 H         0.488312         0.577576        -1.216211
 H        -0.413599        -0.742491        -0.365322
 H        -0.502610         0.948828         0.212701
 H         2.714970        -1.932524         0.432454
