19
Iteration:  2530charge 0 multiplicity 1
 C         1.932266         2.385983         1.095968
 C         2.136315         0.925513         1.478822
 C         2.255066         0.259292         2.860567
 C         2.110860        -1.113581         2.262214
 O         0.701955        -1.041810         1.821794
 C         1.255120        -0.195943         0.714333
 C         0.539650         0.158190        -0.653025
 C         2.611538        -0.825087         0.814665
 O         3.373322         0.415495         0.832032
 H         2.504009         2.716453         0.158185
 H         0.890574         2.635076         0.843976
 H         2.314190         3.155273         1.786154
 H         3.163541         0.354925         3.392716
 H         1.423712         0.561507         3.544943
 H         2.323673        -2.001507         2.866583
 H         0.927815        -0.469750        -1.443688
 H        -0.519856        -0.143982        -0.557170
 H         0.473241         1.220731        -0.774504
 H         2.784082        -1.702209         0.184568
