19
Iteration:  2214charge 0 multiplicity 1
 C         2.212920         2.408445         0.927866
 C         2.248433         0.929649         1.399143
 C         2.485350         0.420245         2.735168
 C         2.051460        -1.093678         2.334491
 O         0.627926        -0.959923         1.932290
 C         1.121362        -0.122795         0.794395
 C         0.349704         0.209633        -0.414101
 C         2.490012        -0.965493         0.877682
 O         3.308965         0.166842         0.657777
 H         3.250250         2.788250         0.666566
 H         1.574799         2.634505         0.031429
 H         1.731212         2.947999         1.726266
 H         3.519888         0.544943         3.049645
 H         1.690436         0.764679         3.516364
 H         2.268899        -1.878364         3.078164
 H        -0.260430         1.154212        -0.311686
 H         0.919775         0.225704        -1.347685
 H        -0.396681        -0.641341        -0.626412
 H         2.772298        -1.850542         0.264768
