19
Iteration:  4612charge 0 multiplicity 1
 C         1.172321         2.264678         1.415450
 C         1.934515         0.929161         1.618458
 C         1.792568         0.138476         2.956573
 C         2.084197        -1.178494         2.117388
 O         1.013378        -1.367506         1.158092
 C         1.598591        -0.200071         0.507607
 C         0.886154         0.156779        -0.861139
 C         3.088165        -0.515244         0.946786
 O         3.378027         0.806273         1.358582
 H         0.184913         2.248956         1.994370
 H         1.721190         3.021499         1.957195
 H         1.262966         2.465371         0.333171
 H         2.495413         0.248972         3.804681
 H         0.791508         0.021803         3.344403
 H         2.342508        -2.145604         2.605618
 H         0.987842         1.064770        -1.370541
 H         1.166771        -0.565366        -1.638667
 H        -0.224354         0.011725        -0.694402
 H         3.925996        -1.089622         0.322721
