19
Iteration:  4623charge 0 multiplicity 1
 C         1.317557         2.231923         1.417058
 C         1.875344         0.921768         1.663111
 C         1.768069         0.069395         2.920549
 C         2.150590        -1.252198         2.080303
 O         1.041510        -1.303329         1.102730
 C         1.586242        -0.187072         0.474152
 C         0.833022         0.098421        -0.773392
 C         3.049108        -0.487624         0.963311
 O         3.328913         0.873489         1.365926
 H         0.168393         2.128008         1.501673
 H         1.746331         3.115126         1.868316
 H         1.317024         2.413899         0.319554
 H         2.465545         0.467175         3.684090
 H         0.753199         0.129473         3.284628
 H         2.235081        -2.084343         2.787493
 H         1.309962         0.910563        -1.221593
 H         0.912644        -0.824010        -1.363374
 H        -0.249264         0.325366        -0.569232
 H         4.049798        -0.993163         0.605278
