19
Iteration:  1531charge 0 multiplicity 1
 C         2.604904         2.261994         0.776181
 C         2.371237         0.904022         1.233422
 C         2.731570         0.341523         2.662806
 C         2.080759        -0.975463         2.346955
 O         0.620642        -0.498575         2.178918
 C         1.051547        -0.094738         0.922467
 C         0.047440         0.150687        -0.192662
 C         2.219008        -1.098480         0.845555
 O         3.157167        -0.039111         0.460284
 H         1.696874         2.825862         1.039398
 H         3.522911         2.624538         1.219465
 H         2.826393         2.282161        -0.243966
 H         3.754966         0.379498         2.906134
 H         2.151049         0.938029         3.399279
 H         2.223931        -1.739031         3.055017
 H        -1.015265         0.009731         0.056243
 H         0.009060         1.168588        -0.653515
 H         0.367236        -0.302995        -1.093209
 H         2.304118        -2.017663         0.296635
