19
Iteration:  3400charge 0 multiplicity 1
 C         1.497916         2.502924         1.524848
 C         1.837683         0.969582         1.572190
 C         1.573435         0.100766         2.851994
 C         2.100620        -1.273664         2.120619
 O         0.988038        -1.438876         1.135692
 C         1.574739        -0.168547         0.502215
 C         1.005437        -0.016912        -0.969945
 C         3.048119        -0.473121         1.029302
 O         3.280031         0.815433         1.422221
 H         0.942285         2.736688         0.584195
 H         0.861959         2.958091         2.343429
 H         2.524555         2.973559         1.500332
 H         2.219021         0.325487         3.749657
 H         0.555597         0.087386         3.264067
 H         2.225255        -2.108228         2.809249
 H         0.345901        -0.917241        -1.054624
 H         0.316821         0.794763        -1.180324
 H         1.746086        -0.084814        -1.766172
 H         3.904595        -1.040782         0.587093
