19
Iteration:  2719
 C         1.815804         2.376555         1.216151
 C         2.088324         0.968193         1.483241
 C         2.140896         0.267158         2.841613
 C         2.014580        -1.155187         2.275229
 O         0.746142        -1.063930         1.585959
 C         1.311672        -0.185405         0.647566
 C         0.537128         0.069711        -0.638451
 C         2.817216        -0.770941         0.819788
 O         3.417051         0.478297         0.982389
 H         2.111760         2.972238         2.063874
 H         2.513375         2.701768         0.371436
 H         0.754367         2.519205         0.863947
 H         3.084846         0.481766         3.375567
 H         1.312200         0.433415         3.530564
 H         2.115718        -1.937929         3.042345
 H         1.139203         0.744449        -1.258257
 H         0.365807        -0.883981        -1.115458
 H        -0.442883         0.460377        -0.498457
 H         3.307721        -1.521214         0.129910
