19
Iteration:  1838charge 0 multiplicity 1
 C         2.455172         2.374775         0.854091
 C         2.375927         0.904614         1.141211
 C         2.652368         0.353525         2.708872
 C         1.918459        -0.989895         2.469213
 O         0.557434        -0.659661         2.045706
 C         1.208113        -0.057253         0.882868
 C         0.117116         0.146891        -0.212096
 C         2.314000        -1.046650         0.846734
 O         3.297724        -0.016424         0.477866
 H         3.291602         2.596611         0.177518
 H         1.592069         2.845929         0.400277
 H         2.482461         2.862560         1.863790
 H         3.710275         0.309273         2.870571
 H         2.211884         1.066044         3.489987
 H         1.997073        -1.919065         3.086306
 H         0.364065        -0.520511        -1.007616
 H        -0.770307        -0.212891         0.328079
 H         0.079574         1.018176        -0.781886
 H         2.433037        -2.021599         0.243951
