19
Iteration:   591charge 0 multiplicity 1
 C         2.474301         2.253090         0.941331
 C         2.387791         0.816061         1.063419
 C         2.708709         0.389449         2.558497
 C         2.002444        -0.905731         2.533006
 O         0.602715        -0.438884         2.132681
 C         1.137043        -0.114142         0.824375
 C         0.151039         0.294495        -0.144538
 C         2.265742        -1.167742         0.863172
 O         3.181325        -0.169530         0.389438
 H         1.607584         2.832307         1.269829
 H         3.257879         2.715465         1.565876
 H         2.528386         2.637136        -0.070963
 H         3.810775         0.180157         2.443809
 H         2.469386         1.017258         3.304464
 H         2.085909        -1.556401         3.391031
 H        -0.632870        -0.303184         0.181439
 H        -0.197914         1.273030        -0.203370
 H         0.222049        -0.106150        -1.167023
 H         2.345665        -2.303023         0.594186
