19
Iteration:   485charge 0 multiplicity 1
 C         2.671108         2.290539         0.803300
 C         2.422003         0.859290         1.122946
 C         2.621644         0.507813         2.582344
 C         2.032404        -0.885763         2.385760
 O         0.544715        -0.606621         2.110644
 C         1.090249        -0.109278         0.855143
 C        -0.059357         0.296271        -0.033965
 C         2.262371        -1.134862         0.830303
 O         3.327627        -0.249013         0.476136
 H         2.111287         2.802989         1.486979
 H         3.742064         2.602238         0.759945
 H         2.327755         2.566986        -0.210349
 H         3.593929         0.681038         3.031420
 H         1.983717         1.096323         3.234636
 H         2.221935        -1.612472         3.267351
 H        -0.588809        -0.588811        -0.528717
 H        -0.707151         0.654437         0.719124
 H         0.220703         1.200665        -0.711511
 H         2.222283        -2.173263         0.347324
