19
Iteration:  4078charge 0 multiplicity 1
 C         1.460079         2.474369         1.716127
 C         1.938829         1.056987         1.564425
 C         1.765858         0.220238         2.798868
 C         1.978692        -1.150367         2.147957
 O         0.851608        -1.267801         1.262192
 C         1.498889        -0.156986         0.495943
 C         1.093268        -0.170027        -0.939340
 C         2.850346        -0.657830         0.923214
 O         3.424534         0.690307         1.224229
 H         0.508826         2.461130         1.189908
 H         1.340696         2.669226         2.769060
 H         2.246446         3.083663         1.168260
 H         2.582062         0.490711         3.512041
 H         0.759253         0.162167         3.153901
 H         2.129911        -2.110319         2.742654
 H         1.427636        -0.933398        -1.620226
 H         0.010691        -0.140959        -0.979257
 H         1.431037         0.701915        -1.348877
 H         3.696885        -1.094931         0.478973
