19
Iteration:  2660charge 0 multiplicity 1
 C         1.882698         2.392182         1.308008
 C         2.087446         0.923828         1.485402
 C         2.151608         0.440011         2.851476
 C         2.086375        -1.090680         2.249451
 O         0.716731        -1.078815         1.662312
 C         1.315792        -0.218336         0.634669
 C         0.636348         0.040272        -0.647232
 C         2.668695        -0.846479         0.801881
 O         3.339965         0.430959         0.856612
 H         0.992113         2.722518         1.901843
 H         2.810827         2.824962         1.684952
 H         1.702413         2.790052         0.265805
 H         3.149148         0.593611         3.260190
 H         1.385825         0.560042         3.627428
 H         2.345088        -1.994422         2.826013
 H        -0.065480         0.878098        -0.678231
 H         1.376328         0.174343        -1.457076
 H        -0.030596        -0.848697        -0.713660
 H         3.055498        -1.585335         0.113738
