19
Iteration:  2733charge 0 multiplicity 1
 C         1.882533         2.511809         1.184364
 C         2.113970         0.962746         1.480317
 C         2.048061         0.234189         2.904832
 C         2.092999        -1.151254         2.187165
 O         0.712739        -1.131327         1.610175
 C         1.385009        -0.209300         0.608160
 C         0.541322         0.011196        -0.634629
 C         2.699717        -0.784805         0.863153
 O         3.429324         0.524912         1.005700
 H         2.312076         3.290208         1.908292
 H         2.209502         2.735883         0.153554
 H         0.820127         2.693101         1.353463
 H         3.036658         0.445440         3.286861
 H         1.188687         0.525745         3.647505
 H         2.326521        -2.163428         2.495763
 H         1.137025         0.278976        -1.485855
 H         0.016609        -0.939173        -0.931623
 H        -0.179240         0.913877        -0.395762
 H         3.276848        -1.534232         0.335805
