19
Iteration:  2258
 C         2.205486         2.387467         1.099134
 C         2.295473         0.958724         1.282385
 C         2.395004         0.407628         2.804366
 C         2.084380        -1.066794         2.362552
 O         0.634109        -0.867665         1.869830
 C         1.198444        -0.132528         0.682342
 C         0.159609         0.119831        -0.454151
 C         2.611033        -1.020719         0.864885
 O         3.376602         0.194472         0.686581
 H         2.700955         2.604789         0.092513
 H         1.135585         2.640108         0.914584
 H         2.589623         3.048215         1.867723
 H         3.309693         0.778245         3.204206
 H         1.451531         0.735201         3.444135
 H         2.180750        -1.977098         2.953866
 H         0.523166         0.959533        -1.143909
 H         0.082790        -0.843684        -0.998353
 H        -0.816689         0.367447         0.084746
 H         2.858212        -1.948050         0.318611
