19
Iteration:  3794
 C         1.317691         2.375449         1.468760
 C         1.859113         0.939103         1.540762
 C         1.792994         0.139789         2.880149
 C         2.022342        -1.241209         2.196462
 O         0.882125        -1.308180         1.287207
 C         1.593826        -0.158714         0.528630
 C         1.205564         0.171968        -0.872365
 C         2.867200        -0.644838         0.939025
 O         3.371540         0.698571         1.245423
 H         0.239898         2.342741         1.673193
 H         1.686060         3.119622         2.190744
 H         1.358887         2.676738         0.429976
 H         2.433141         0.451445         3.697217
 H         0.667401         0.069177         3.107734
 H         2.355418        -2.102954         2.802097
 H         1.141104        -0.646242        -1.595436
 H         0.131207         0.612182        -0.828996
 H         1.966574         0.912406        -1.273116
 H         3.643420        -1.221035         0.436639
