19
Iteration:  1265charge 0 multiplicity 1
 C         2.504970         2.331005         0.721367
 C         2.401529         0.846912         1.153418
 C         2.663118         0.296124         2.660434
 C         1.995958        -1.002146         2.420532
 O         0.602084        -0.485850         2.164915
 C         1.074954        -0.117587         0.841547
 C         0.046225         0.276573        -0.115213
 C         2.331571        -1.067750         0.891613
 O         3.273336        -0.120407         0.426337
 H         2.130534         2.799003         1.580258
 H         3.513201         2.651910         0.740243
 H         1.964108         2.602489        -0.182325
 H         3.831100         0.189622         2.799726
 H         2.175014         0.827940         3.398315
 H         2.048251        -1.710478         3.162105
 H        -0.944622        -0.059414         0.202627
 H        -0.021850         1.349038        -0.070887
 H         0.131904        -0.247733        -1.110844
 H         2.514508        -2.022041         0.473961
