19
Iteration:  1572charge 0 multiplicity 1
 C         2.537000         2.232308         0.725335
 C         2.387724         0.834343         1.239136
 C         2.678223         0.475687         2.629513
 C         2.045124        -0.940228         2.432061
 O         0.607291        -0.679501         2.085402
 C         1.107899        -0.056242         0.892155
 C         0.094695         0.332372        -0.085511
 C         2.239556        -1.063652         0.883758
 O         3.195499        -0.128025         0.405607
 H         1.541045         2.753651         0.504399
 H         3.144915         2.845107         1.513827
 H         3.244209         2.293993        -0.132954
 H         3.816840         0.409860         2.866521
 H         2.126018         0.986416         3.368187
 H         2.167579        -1.827776         3.116425
 H        -0.871992         0.217385         0.506550
 H         0.056949         1.363927        -0.463363
 H         0.248321        -0.413295        -0.917624
 H         2.164430        -2.050504         0.521386
