19
Iteration:   664
 C         2.680900         2.191095         0.648268
 C         2.355419         0.880970         1.223828
 C         2.612820         0.423978         2.665943
 C         2.027894        -0.916273         2.464173
 O         0.561368        -0.647964         2.126647
 C         1.081000        -0.156391         0.917249
 C         0.036152         0.321385        -0.065866
 C         2.333641        -1.109820         0.826370
 O         3.179477        -0.068332         0.439972
 H         2.266335         3.148345         1.157126
 H         3.722180         2.436390         0.712164
 H         2.393041         2.253595        -0.405457
 H         3.752725         0.329257         2.737686
 H         2.114071         1.148537         3.448065
 H         2.222214        -1.730523         3.074870
 H        -0.573331        -0.383914        -0.645345
 H        -0.689306         1.122450         0.505757
 H         0.488484         0.960926        -0.840984
 H         2.477065        -2.013780         0.373982
