19
Iteration:  4725
 C         1.190466         2.241814         1.673739
 C         1.901610         0.995298         1.604864
 C         1.886082         0.128789         2.972386
 C         2.167268        -1.165590         2.043645
 O         0.935978        -1.295955         1.228882
 C         1.529473        -0.174157         0.516824
 C         1.040141        -0.062630        -0.991629
 C         2.957386        -0.491575         0.841657
 O         3.327294         0.863061         1.294617
 H         0.104813         1.989075         1.566240
 H         1.210011         2.715597         2.725279
 H         1.342250         2.937323         0.859316
 H         2.728090         0.504961         3.544097
 H         0.918089        -0.047406         3.497750
 H         2.687400        -1.984552         2.571711
 H         1.221507        -1.176676        -1.353806
 H        -0.047346         0.100861        -0.993516
 H         1.473401         0.679410        -1.651099
 H         3.669174        -1.003604         0.256587
