19
Iteration:  3760charge 0 multiplicity 1
 C         1.584930         2.463291         1.727829
 C         1.788724         0.988520         1.525120
 C         1.701014         0.177644         2.833761
 C         1.998784        -1.166374         2.126160
 O         0.925819        -1.371925         1.181239
 C         1.556722        -0.317420         0.467796
 C         1.168553        -0.078261        -0.952236
 C         2.892382        -0.517808         1.016349
 O         3.233709         0.801887         1.246883
 H         0.665185         2.672418         2.276137
 H         2.495347         2.853676         2.244325
 H         1.544787         2.943683         0.798287
 H         2.301893         0.509701         3.617308
 H         0.622728         0.034498         3.281859
 H         2.468653        -1.883985         2.746999
 H         1.300017        -1.031877        -1.445945
 H         0.090976         0.377601        -0.952946
 H         1.622161         0.747427        -1.611644
 H         3.619789        -1.256413         0.589613
