19
Iteration:  1667charge 0 multiplicity 1
 C         2.588034         2.331339         0.794119
 C         2.312750         0.935406         1.183118
 C         2.622643         0.410123         2.610281
 C         2.059785        -1.018023         2.379842
 O         0.671360        -0.582844         2.208690
 C         1.064813        -0.095393         0.912930
 C         0.129796         0.201663        -0.198454
 C         2.214849        -1.117959         0.828380
 O         3.161672        -0.062794         0.475842
 H         2.058071         2.987743         1.400024
 H         3.645845         2.451199         0.881645
 H         2.518712         2.624526        -0.255061
 H         3.725948         0.409907         2.790426
 H         2.039667         0.772061         3.415492
 H         2.194435        -1.872334         3.157904
 H        -0.448129         1.043550         0.103819
 H         0.578033         0.439085        -1.124871
 H        -0.325921        -0.795535        -0.319151
 H         2.334054        -2.055991         0.218726
