19
Iteration:  3418charge 0 multiplicity 1
 C         1.538305         2.489768         1.514113
 C         1.793812         1.008682         1.664951
 C         1.547078         0.074640         2.862048
 C         2.126496        -1.134935         2.114746
 O         1.045626        -1.379866         1.139194
 C         1.583619        -0.228681         0.503082
 C         1.096811        -0.061843        -0.885678
 C         2.906165        -0.534573         0.976056
 O         3.211098         0.791113         1.367113
 H         0.936160         2.767867         0.654808
 H         1.122763         2.897642         2.392473
 H         2.496059         2.946418         1.222180
 H         2.147422         0.311123         3.830430
 H         0.559681        -0.289274         3.013676
 H         2.524945        -2.075927         2.545305
 H         0.579125        -0.904057        -1.409797
 H         0.479305         0.816371        -0.891060
 H         2.032661         0.155497        -1.379479
 H         3.488179        -1.118095         0.270295
