19
Iteration:  4323
 C         1.493979         2.362194         1.329913
 C         1.891131         0.969546         1.698403
 C         1.684298         0.100142         2.899450
 C         2.144020        -1.186411         2.157544
 O         0.940052        -1.414834         1.218071
 C         1.548692        -0.244072         0.480169
 C         0.998365         0.145109        -0.883452
 C         2.945398        -0.556933         0.990204
 O         3.265149         0.797950         1.323254
 H         0.383380         2.527656         1.497286
 H         1.914386         3.105310         2.122022
 H         1.825100         2.717371         0.346616
 H         2.528374         0.347190         3.557742
 H         0.602954        -0.090476         3.275327
 H         2.441052        -2.136847         2.630342
 H         1.125596         1.230684        -0.877924
 H         1.331610        -0.458054        -1.756878
 H        -0.090906         0.010453        -0.648466
 H         3.768941        -1.019381         0.465477
