19
Iteration:  1424charge 0 multiplicity 1
 C         2.596200         2.357665         0.619285
 C         2.472223         0.921588         1.204409
 C         2.671909         0.370558         2.718891
 C         1.978573        -0.958176         2.415580
 O         0.612212        -0.634753         2.189758
 C         1.073080        -0.091537         0.895865
 C         0.042081         0.273213        -0.145539
 C         2.204594        -1.072858         0.842957
 O         3.245149        -0.174879         0.454193
 H         2.407712         3.155493         1.378881
 H         3.644241         2.464277         0.396590
 H         1.927158         2.508120        -0.267042
 H         3.679245         0.489678         2.938385
 H         2.036046         0.870905         3.576151
 H         2.011242        -1.666128         3.203981
 H         0.046041        -0.521169        -0.898315
 H        -0.901312         0.400132         0.428176
 H         0.393107         1.166844        -0.639165
 H         2.143012        -2.087544         0.304154
