19
Iteration:  1102
 C         2.635980         2.384293         0.729263
 C         2.339887         0.874542         1.104012
 C         2.712876         0.442692         2.611642
 C         1.990346        -0.940149         2.491326
 O         0.635757        -0.687087         2.201554
 C         0.998398        -0.180404         0.927844
 C         0.092128         0.360753        -0.138495
 C         2.233834        -1.140884         0.856348
 O         3.184323        -0.171743         0.408768
 H         1.737118         3.000343         0.931984
 H         3.431215         2.927911         1.456578
 H         2.965193         2.585296        -0.355667
 H         3.871152         0.288409         2.787403
 H         2.358171         1.084107         3.386905
 H         2.124578        -1.782768         3.128020
 H        -0.665571        -0.359713        -0.496883
 H        -0.446232         1.103241         0.482641
 H         0.774245         0.675686        -1.015393
 H         2.247982        -1.965587         0.286660
