19
Iteration:  4335charge 0 multiplicity 1
 C         1.505322         2.445415         1.483633
 C         1.825293         0.968899         1.563520
 C         1.738372         0.097474         2.941502
 C         2.092861        -1.175270         2.160480
 O         1.011848        -1.417513         1.191590
 C         1.492723        -0.254168         0.499213
 C         0.978170         0.062772        -0.891896
 C         2.944962        -0.539381         0.919939
 O         3.264774         0.802721         1.360996
 H         0.435030         2.660467         1.471240
 H         2.161105         3.051973         2.196985
 H         1.883874         2.677295         0.457143
 H         2.309790         0.348477         3.837469
 H         0.659863         0.136881         3.388867
 H         2.509050        -2.117547         2.636746
 H         1.466795         0.951106        -1.395258
 H         1.244899        -0.726782        -1.674322
 H        -0.113783         0.189455        -0.995594
 H         3.667590        -1.163227         0.459955
