19
Iteration:  3146charge 0 multiplicity 1
 C         1.406797         2.330795         1.486419
 C         1.959454         0.985548         1.566099
 C         1.899856         0.202081         2.854852
 C         2.065054        -1.141630         2.175066
 O         0.831796        -1.197469         1.308762
 C         1.536327        -0.190759         0.543649
 C         0.920803        -0.022844        -0.844217
 C         2.944607        -0.684063         0.927209
 O         3.392120         0.726583         1.195005
 H         0.615911         2.285804         0.676654
 H         0.848669         2.501532         2.375687
 H         2.069289         3.090370         1.134837
 H         2.807806         0.328972         3.446689
 H         0.986115         0.301577         3.461131
 H         2.037883        -1.974182         2.884690
 H         0.894019         0.986794        -1.172099
 H         1.488677        -0.544567        -1.630460
 H        -0.149504        -0.383128        -0.787236
 H         3.612656        -1.360664         0.378769
