19
Iteration:  3081charge 0 multiplicity 1
 C         1.657522         2.547253         1.472282
 C         1.907424         1.025971         1.549623
 C         1.781408         0.231038         2.818801
 C         2.103629        -1.130887         2.230860
 O         0.885718        -1.347273         1.309285
 C         1.454145        -0.391781         0.518320
 C         0.836673         0.005766        -0.726735
 C         2.940270        -0.698764         0.904348
 O         3.305374         0.698948         1.130949
 H         2.311120         3.007458         0.664724
 H         0.680003         2.744821         1.079256
 H         1.809046         3.066844         2.413389
 H         2.700038         0.538734         3.394857
 H         0.825167         0.267182         3.429996
 H         2.314874        -2.003755         2.857324
 H        -0.231319        -0.225087        -0.528056
 H         1.009369         1.094934        -0.894025
 H         1.225171        -0.551374        -1.670193
 H         3.706661        -1.195112         0.333716
