19
Iteration:  4374
 C         1.426122         2.428018         1.748807
 C         1.946333         0.984548         1.571872
 C         1.727561         0.113079         2.870661
 C         2.059399        -1.139263         2.138547
 O         0.901461        -1.252084         1.223585
 C         1.560273        -0.298569         0.377355
 C         1.025800        -0.168149        -0.990673
 C         2.962673        -0.535520         0.963674
 O         3.323550         0.853159         1.223847
 H         0.410633         2.460731         2.289429
 H         1.889499         2.837596         2.630918
 H         1.322647         3.156121         0.972398
 H         2.313710         0.609424         3.680259
 H         0.670828         0.022519         3.103121
 H         2.179740        -2.078835         2.662845
 H         1.908993        -0.206035        -1.578830
 H         0.618813        -1.159752        -1.025818
 H         0.372454         0.722121        -1.165579
 H         3.801573        -1.141799         0.437733
