19
Iteration:  3520charge 0 multiplicity 1
 C         1.359915         2.410519         1.407943
 C         1.787150         0.913405         1.622414
 C         1.741107         0.088982         2.895513
 C         2.039252        -1.167204         2.164296
 O         0.927498        -1.304972         1.133540
 C         1.540558        -0.268361         0.505721
 C         1.164074         0.083162        -0.896840
 C         2.956053        -0.576130         1.023027
 O         3.338853         0.742666         1.362202
 H         0.424495         2.830730         1.855304
 H         2.281480         3.007282         1.757886
 H         1.365322         2.787555         0.351901
 H         2.440298         0.287952         3.741410
 H         0.699897         0.105533         3.342879
 H         2.090038        -2.057867         2.789362
 H         1.848902        -0.348539        -1.620489
 H         0.110576        -0.200383        -1.032822
 H         1.219849         1.186978        -0.816832
 H         3.782403        -0.978063         0.372571
