19
Iteration:   821
 C         2.518926         2.283809         0.664668
 C         2.441030         0.840442         1.150614
 C         2.690595         0.378713         2.604718
 C         1.968134        -0.978569         2.412344
 O         0.568078        -0.576758         2.113267
 C         1.107847        -0.010083         0.842176
 C        -0.060506         0.344264         0.006173
 C         2.316635        -1.096611         0.858371
 O         3.365044        -0.172156         0.539421
 H         1.609962         2.771301         0.737676
 H         3.366256         2.796154         1.211261
 H         2.652281         2.162983        -0.429221
 H         3.839825         0.188908         2.845407
 H         2.272554         1.008554         3.355203
 H         2.089914        -1.775473         3.237248
 H        -1.001588        -0.201069         0.402846
 H        -0.329850         1.390227        -0.062331
 H         0.033753        -0.030052        -1.091200
 H         2.318095        -2.036070         0.223776
