19
Iteration:  3712
 C         1.508296         2.424369         1.587079
 C         1.928924         0.991333         1.671452
 C         1.585713         0.132707         2.833258
 C         2.121466        -1.205666         2.127349
 O         0.902312        -1.254323         1.124255
 C         1.587107        -0.163387         0.439565
 C         0.990073        -0.182620        -0.958397
 C         2.928778        -0.590728         0.927223
 O         3.358410         0.821810         1.430370
 H         0.466087         2.564171         1.893881
 H         2.257882         2.962040         2.158277
 H         1.696034         2.870722         0.541393
 H         2.170337         0.424940         3.786156
 H         0.613766         0.093748         3.161984
 H         2.276703        -2.107825         2.857533
 H         1.145935        -1.136239        -1.590794
 H        -0.003162         0.141767        -0.756404
 H         1.158804         0.720802        -1.522230
 H         3.828468        -1.039396         0.403286
