19
Iteration:  3253charge 0 multiplicity 1
 C         1.490660         2.442477         1.562525
 C         1.811171         0.994707         1.500245
 C         1.671856         0.151783         2.793909
 C         2.061799        -1.162536         2.190362
 O         0.971021        -1.339986         1.216507
 C         1.597040        -0.160770         0.467555
 C         0.891974        -0.105063        -0.863275
 C         3.021083        -0.574217         0.957229
 O         3.410370         0.787197         1.347291
 H         1.529492         2.885304         2.589831
 H         2.017125         2.911822         0.734741
 H         0.434976         2.581111         1.314766
 H         2.326229         0.594271         3.478735
 H         0.671749        -0.009586         3.291096
 H         2.088590        -2.161271         2.691253
 H         1.209321        -0.917716        -1.420918
 H        -0.179479        -0.253358        -0.669984
 H         1.001485         0.790081        -1.499436
 H         3.844421        -1.166096         0.503590
