19
Iteration:  2099
 C         2.368225         2.406549         0.931714
 C         2.307068         0.970824         1.300185
 C         2.461050         0.420219         2.783362
 C         2.006406        -1.073770         2.423123
 O         0.623168        -0.894687         1.924058
 C         1.190461        -0.148200         0.876670
 C         0.271735         0.160692        -0.249906
 C         2.441613        -1.018009         0.786262
 O         3.242633         0.149823         0.466779
 H         1.684561         3.093405         1.443230
 H         3.328103         2.715753         1.177110
 H         2.346496         2.302283        -0.175934
 H         3.361025         0.618522         3.349706
 H         1.624821         0.980351         3.265528
 H         2.097531        -1.737360         3.293320
 H         0.389074        -0.597520        -1.051401
 H        -0.852026         0.139946         0.001994
 H         0.405948         1.133979        -0.610835
 H         2.772888        -1.917925         0.172476
