19
Iteration:   438
 C         2.573218         2.242795         0.713357
 C         2.408075         0.893199         1.295837
 C         2.793855         0.323406         2.647769
 C         2.018527        -0.903196         2.441916
 O         0.570824        -0.541733         2.201224
 C         1.026040        -0.115100         0.890094
 C         0.067090         0.250470        -0.241664
 C         2.198822        -1.026953         0.836107
 O         3.159658        -0.111326         0.450146
 H         1.726519         3.010574         0.958369
 H         3.428309         2.708842         1.213355
 H         2.843964         2.087899        -0.355982
 H         3.860766         0.009094         2.585851
 H         2.726350         0.892852         3.554558
 H         2.197159        -1.709812         3.058090
 H        -0.482738        -0.651866        -0.352422
 H        -0.592510         1.138468         0.027370
 H         0.742230         0.499683        -1.121641
 H         2.390777        -2.071841         0.355544
