19
Iteration:  1101charge 0 multiplicity 1
 C         2.639520         2.394222         0.742830
 C         2.334116         0.874226         1.096947
 C         2.718330         0.442292         2.603694
 C         1.988241        -0.938856         2.484546
 O         0.634628        -0.689927         2.202906
 C         1.002351        -0.172327         0.927271
 C         0.088224         0.354581        -0.142511
 C         2.237182        -1.133647         0.866700
 O         3.182260        -0.183259         0.408670
 H         1.728903         3.014422         0.922206
 H         3.434889         2.888070         1.467767
 H         2.928533         2.586839        -0.363622
 H         3.882343         0.317409         2.769764
 H         2.324797         1.125155         3.418702
 H         2.133346        -1.819676         3.150960
 H        -0.656963        -0.367615        -0.469080
 H        -0.424033         1.143834         0.476051
 H         0.796469         0.656977        -1.019672
 H         2.246445        -1.994761         0.248614
