19
Iteration:  4536
 C         1.382948         2.513086         1.648042
 C         1.792828         0.968957         1.631208
 C         1.806147         0.130819         2.897828
 C         2.182480        -1.240916         2.074975
 O         0.949499        -1.383556         1.203373
 C         1.493749        -0.220744         0.467289
 C         1.112369        -0.088350        -0.898086
 C         2.910841        -0.480423         0.873236
 O         3.222312         0.826994         1.287410
 H         0.270305         2.552008         1.889452
 H         1.793214         2.878613         2.553977
 H         1.602239         3.021139         0.742311
 H         2.689188         0.479736         3.495667
 H         0.809279        -0.009550         3.347373
 H         2.546687        -2.067620         2.715905
 H         0.162091         0.365035        -1.146034
 H         1.952616         0.407463        -1.458779
 H         1.016674        -1.112267        -1.426148
 H         3.810408        -1.152999         0.434847
