19
Iteration:  2539charge 0 multiplicity 1
 C         1.934700         2.347293         1.125975
 C         2.121880         1.006777         1.533164
 C         2.281115         0.323213         2.806025
 C         2.065992        -1.133315         2.340760
 O         0.705193        -1.134133         1.751278
 C         1.245129        -0.143529         0.692360
 C         0.504774         0.175285        -0.614813
 C         2.617853        -0.790452         0.804005
 O         3.404913         0.368277         0.825399
 H         2.271343         2.237465         0.006412
 H         0.857590         2.701075         1.144463
 H         2.529487         2.956758         1.793853
 H         3.163722         0.574306         3.340416
 H         1.351969         0.724054         3.400585
 H         2.440784        -1.913628         2.982730
 H         0.840635        -0.463725        -1.380983
 H        -0.498094        -0.045115        -0.390868
 H         0.716363         1.130254        -1.188694
 H         2.884958        -1.634773         0.160801
