19
Iteration:   323
 C         2.687516         2.122333         0.653332
 C         2.463088         0.844590         1.196208
 C         2.559053         0.383846         2.693219
 C         2.001187        -0.973226         2.376931
 O         0.633971        -0.597043         2.271096
 C         1.081292         0.027556         0.924071
 C         0.047559         0.267960        -0.116833
 C         2.214144        -1.027968         0.815435
 O         3.207880        -0.064769         0.422827
 H         2.171535         2.934836         1.364950
 H         3.794774         2.426997         0.397052
 H         2.162516         2.232692        -0.345029
 H         3.596607         0.540127         3.100797
 H         1.876524         0.862820         3.382689
 H         2.294023        -1.801207         3.046898
 H        -0.329782        -0.641746        -0.621820
 H        -0.828166         0.771725         0.147337
 H         0.434406         0.915731        -0.987924
 H         2.279381        -1.956437         0.251877
