19
Iteration:  1093charge 0 multiplicity 1
 C         2.625170         2.425856         0.821442
 C         2.335715         0.874451         1.097702
 C         2.715055         0.459106         2.561859
 C         2.022094        -0.967884         2.438895
 O         0.595886        -0.683116         2.214547
 C         1.075358        -0.108613         0.909526
 C         0.073764         0.316144        -0.131876
 C         2.237954        -1.110463         0.901624
 O         3.169339        -0.231261         0.399414
 H         1.733592         3.019657         0.977391
 H         3.547263         2.599087         1.484653
 H         2.787248         2.518891        -0.251350
 H         3.827435         0.529240         2.586736
 H         2.257945         1.027230         3.245566
 H         2.176389        -1.686475         3.150802
 H        -0.699678        -0.454461        -0.351745
 H        -0.280447         1.322628         0.064672
 H         0.715581         0.538042        -0.995254
 H         2.230169        -2.020872         0.417669
