19
Iteration:  1087
 C         2.602056         2.365733         0.851267
 C         2.363879         0.877461         1.142801
 C         2.689590         0.450933         2.509285
 C         2.062597        -0.960720         2.408249
 O         0.579199        -0.647790         2.215071
 C         1.104604        -0.070983         0.903650
 C         0.086896         0.292139        -0.119938
 C         2.207345        -1.113729         0.899203
 O         3.181306        -0.210493         0.380958
 H         1.771727         3.014832         1.237012
 H         3.485663         2.647595         1.354838
 H         2.890374         2.519503        -0.205123
 H         3.764343         0.526965         2.600643
 H         2.110539         1.090736         3.369901
 H         2.259585        -1.718874         3.276803
 H        -0.730577        -0.407969        -0.289387
 H        -0.361178         1.320350        -0.120345
 H         0.605583         0.350606        -1.115810
 H         2.194754        -2.272048         0.560732
