19
Iteration:  2922charge 0 multiplicity 1
 C         1.762529         2.458416         1.312448
 C         2.018869         0.969560         1.505522
 C         1.960084         0.243740         2.862998
 C         2.068107        -1.174038         2.193761
 O         0.830737        -1.203474         1.436512
 C         1.375507        -0.147375         0.555341
 C         0.649300        -0.049544        -0.714255
 C         2.838800        -0.710645         0.896765
 O         3.361046         0.614332         1.135272
 H         0.939635         2.888406         1.901432
 H         2.621772         2.959634         1.799539
 H         1.715274         2.826936         0.243875
 H         2.817127         0.375639         3.621498
 H         1.023350         0.420793         3.308916
 H         2.233490        -2.124228         2.712446
 H         0.653911         0.998211        -1.187438
 H         1.178837        -0.692902        -1.432718
 H        -0.313637        -0.461248        -0.552920
 H         3.563228        -1.404124         0.424223
