19
Iteration:  3598charge 0 multiplicity 1
 C         1.417207         2.365445         1.618567
 C         1.839511         0.982283         1.570145
 C         1.713020         0.151502         2.865909
 C         2.028486        -1.203897         2.127587
 O         0.936432        -1.287509         1.109350
 C         1.572368        -0.219509         0.415555
 C         1.037288        -0.080496        -0.981581
 C         2.924125        -0.574616         1.044926
 O         3.397761         0.851827         1.385831
 H         0.288755         2.480915         1.744916
 H         1.921940         2.946464         2.493433
 H         1.636902         2.947019         0.695887
 H         2.503167         0.328322         3.561897
 H         0.642227         0.181754         3.366137
 H         2.258895        -1.968949         2.813787
 H         1.005754        -1.119217        -1.126999
 H         0.104684         0.545664        -1.001253
 H         1.785865         0.233583        -1.744114
 H         3.706718        -1.205740         0.672854
