19
Iteration:  3020charge 0 multiplicity 1
 C         1.503800         2.492993         1.330058
 C         1.999028         0.947809         1.495974
 C         1.935979         0.165118         2.882915
 C         2.038332        -1.242167         2.212476
 O         0.803128        -1.182505         1.429006
 C         1.473611        -0.209247         0.601933
 C         0.829745         0.066975        -0.779450
 C         2.903366        -0.729641         0.973073
 O         3.399277         0.660030         1.097640
 H         2.355422         3.112543         1.603456
 H         1.293586         2.767497         0.250432
 H         0.508236         2.756743         1.838535
 H         2.951940         0.504411         3.294970
 H         1.223710         0.245615         3.650450
 H         2.278215        -2.200349         2.690277
 H         0.870854        -0.897473        -1.372859
 H        -0.223965         0.282746        -0.742472
 H         1.360167         0.792690        -1.313538
 H         3.519125        -1.464473         0.412084
