19
Iteration:   490charge 0 multiplicity 1
 C         2.686783         2.260069         0.787159
 C         2.426849         0.850938         1.147640
 C         2.632112         0.519767         2.588503
 C         2.032693        -0.908001         2.427014
 O         0.587449        -0.623038         2.078223
 C         1.049376        -0.119757         0.829022
 C        -0.068139         0.319696        -0.050839
 C         2.252643        -1.152227         0.865801
 O         3.313282        -0.217671         0.484372
 H         2.057019         2.984223         1.487081
 H         3.710899         2.596432         0.618516
 H         2.331640         2.678731        -0.188933
 H         3.670288         0.678584         2.961744
 H         2.079460         1.211109         3.339772
 H         2.142106        -1.713550         3.119755
 H        -0.573217        -0.481472        -0.560300
 H        -0.844579         0.697222         0.729650
 H         0.173211         1.084929        -0.713622
 H         2.265147        -2.105169         0.408887
