19
Iteration:  4644charge 0 multiplicity 1
 C         1.328384         2.435450         1.398402
 C         1.800812         0.941560         1.530076
 C         1.705844        -0.013361         2.899329
 C         2.218992        -1.226451         2.035347
 O         1.068137        -1.418723         1.205397
 C         1.602566        -0.224133         0.522928
 C         0.888508         0.111229        -0.752391
 C         3.012452        -0.494670         0.945290
 O         3.286859         0.864802         1.389058
 H         0.164312         2.549982         1.266980
 H         1.803093         2.932625         2.246443
 H         1.864947         2.861510         0.490535
 H         2.336573         0.268499         3.781029
 H         0.697401        -0.194435         3.264375
 H         2.608536        -2.039953         2.699238
 H         1.391195         0.532394        -1.560919
 H         0.442885        -0.836389        -1.068886
 H         0.032872         0.797338        -0.523873
 H         3.878385        -0.922732         0.284453
