19
Iteration:  3808
 C         1.233048         2.285127         1.327335
 C         1.970877         0.993887         1.646355
 C         1.766065         0.112182         2.894634
 C         2.049500        -1.137592         2.084736
 O         0.849488        -1.288488         1.227946
 C         1.535887        -0.197483         0.552122
 C         1.114571         0.236689        -0.825190
 C         2.987006        -0.675177         1.006406
 O         3.387370         0.674129         1.311688
 H         0.145021         2.129015         1.414071
 H         1.562909         3.028872         2.067585
 H         1.571774         2.726572         0.309016
 H         2.765138         0.346778         3.498076
 H         0.963240         0.175637         3.587390
 H         2.168541        -2.129414         2.606146
 H         1.175692        -0.742979        -1.392725
 H         0.174334         0.802543        -0.871610
 H         1.807604         0.936484        -1.244993
 H         3.576781        -1.414030         0.496611
