19
Iteration:  3159
 C         1.297685         2.341926         1.462910
 C         1.972459         0.919836         1.517361
 C         1.911177         0.157396         2.891133
 C         1.952288        -1.189932         2.287926
 O         0.894808        -1.239481         1.315672
 C         1.539613        -0.202016         0.486829
 C         0.920618         0.079911        -0.874611
 C         2.928683        -0.592091         0.982145
 O         3.446271         0.689709         1.143745
 H         0.394797         2.353063         0.865750
 H         1.239287         2.857588         2.413955
 H         2.077691         3.063793         1.085890
 H         2.833388         0.663286         3.449036
 H         1.081676         0.368276         3.513286
 H         2.391483        -2.114434         2.656237
 H         1.254143         1.053756        -1.431221
 H         1.178408        -0.853481        -1.417243
 H        -0.207371        -0.023813        -0.782798
 H         3.615106        -1.311116         0.588111
