19
Iteration:  1270charge 0 multiplicity 1
 C         2.471018         2.332839         0.748605
 C         2.447060         0.876924         1.119543
 C         2.647958         0.341484         2.639155
 C         1.978758        -1.003649         2.437475
 O         0.632033        -0.517698         2.187484
 C         1.118178        -0.120912         0.818619
 C         0.023029         0.304559        -0.136704
 C         2.285412        -1.103445         0.887782
 O         3.292277        -0.148245         0.429415
 H         1.983449         2.856501         1.665498
 H         3.579045         2.681650         0.751262
 H         2.042896         2.512488        -0.262224
 H         3.686529         0.306418         2.809118
 H         2.099106         0.909421         3.535231
 H         2.096537        -1.852672         3.257298
 H        -0.970137        -0.022003         0.294016
 H        -0.018625         1.424973        -0.033239
 H         0.138317        -0.159082        -1.086472
 H         2.487990        -2.100544         0.361293
