19
Iteration:  2298
 C         2.259401         2.526025         1.117610
 C         2.269933         0.910184         1.358656
 C         2.314902         0.375193         2.804704
 C         2.025058        -1.083000         2.353328
 O         0.606907        -0.910274         1.828141
 C         1.254408        -0.208580         0.792095
 C         0.292387         0.024042        -0.471431
 C         2.549040        -0.989686         0.843217
 O         3.337671         0.308431         0.607363
 H         1.795707         2.817267         0.160939
 H         1.718229         3.070069         1.929432
 H         3.268706         2.881564         0.955033
 H         3.343920         0.513786         3.242166
 H         1.549584         0.849803         3.396421
 H         2.157349        -1.978521         3.003843
 H         0.708843        -0.362906        -1.408065
 H        -0.550032        -0.642705        -0.248509
 H        -0.072929         1.098056        -0.512553
 H         2.958882        -1.829469         0.271793
