19
Iteration:  2707
 C         1.792569         2.368277         1.265354
 C         2.078386         0.889061         1.466637
 C         2.198509         0.327755         2.853256
 C         2.007151        -1.048716         2.316649
 O         0.707921        -1.079911         1.579926
 C         1.395607        -0.178365         0.622386
 C         0.609693         0.089343        -0.590651
 C         2.742928        -0.844768         0.818383
 O         3.386176         0.443528         0.892055
 H         1.608093         2.955041         2.128037
 H         2.608802         2.770043         0.594015
 H         0.744954         2.494151         0.743164
 H         3.094529         0.591837         3.471291
 H         1.271838         0.526394         3.323410
 H         2.081331        -2.041821         2.795633
 H         0.848084         1.084110        -1.030996
 H         0.793056        -0.630003        -1.359888
 H        -0.340776         0.211131        -0.238611
 H         3.466659        -1.572512         0.335525
