19
Iteration:  1014charge 0 multiplicity 1
 C         2.575938         2.303150         0.761622
 C         2.389347         0.827002         1.236843
 C         2.714562         0.474243         2.651882
 C         2.006153        -0.979092         2.431956
 O         0.610747        -0.628779         2.162441
 C         1.053031        -0.091629         0.964607
 C         0.091958         0.319954        -0.164988
 C         2.215082        -1.091152         0.809678
 O         3.220184        -0.159198         0.406855
 H         2.533065         2.962623         1.668842
 H         3.535266         2.473675         0.184478
 H         1.909252         2.589038        -0.097655
 H         3.790462         0.342366         2.865627
 H         2.211403         1.124529         3.311940
 H         2.091648        -1.751955         3.283299
 H        -0.847893        -0.202845        -0.132412
 H        -0.279171         1.357529        -0.279112
 H         0.492268         0.015245        -1.191145
 H         2.281417        -2.020766         0.322900
