19
Iteration:  4418
 C         1.329852         2.386944         1.544375
 C         1.825341         1.034950         1.551511
 C         1.822238         0.149600         2.892077
 C         2.116520        -1.264612         2.096868
 O         0.894181        -1.323881         1.220946
 C         1.518192        -0.198428         0.618848
 C         1.117479        -0.007805        -0.900135
 C         2.979555        -0.562510         0.928188
 O         3.286327         0.794732         1.243167
 H         0.238797         2.308131         1.918831
 H         1.810795         2.922512         2.361494
 H         1.336380         2.791780         0.562374
 H         2.720159         0.346080         3.495838
 H         0.875398         0.000071         3.421928
 H         2.351573        -2.063724         2.765114
 H         1.744200        -0.554499        -1.583426
 H         0.066712        -0.267676        -1.082660
 H         1.235930         1.123318        -1.130345
 H         3.803275        -1.151827         0.398979
