19
Iteration:  2067
 C         2.247605         2.374198         0.910968
 C         2.256346         0.887685         1.229739
 C         2.548799         0.443101         2.702633
 C         2.106158        -1.079106         2.331392
 O         0.609101        -0.813785         2.031211
 C         1.170738        -0.132535         0.801088
 C         0.164264         0.257252        -0.302405
 C         2.404606        -1.022545         0.790705
 O         3.382984         0.056243         0.700737
 H         1.291225         2.750643         0.702444
 H         2.847087         2.806589         1.627834
 H         2.798977         2.536878        -0.030662
 H         3.608686         0.605525         2.942025
 H         1.828820         0.816159         3.423178
 H         2.234769        -1.866605         3.082841
 H         0.435630         0.064022        -1.366446
 H        -0.843484        -0.249996        -0.232843
 H        -0.011535         1.306123        -0.350873
 H         2.727769        -1.952791         0.268109
