19
Iteration:  2131charge 0 multiplicity 1
 C         2.366749         2.417296         1.032892
 C         2.319790         0.953950         1.295059
 C         2.495554         0.377411         2.724143
 C         2.045722        -1.012715         2.310140
 O         0.661578        -0.773974         1.986531
 C         1.054219        -0.140016         0.740029
 C         0.077436         0.032818        -0.426912
 C         2.481262        -1.019706         0.826456
 O         3.335179         0.137192         0.672451
 H         2.272882         3.072993         1.921451
 H         3.352270         2.629663         0.667730
 H         1.611081         2.773449         0.256760
 H         3.478154         0.526748         3.075537
 H         1.848401         0.858360         3.519923
 H         2.285296        -1.790757         3.035536
 H        -0.172422        -0.975879        -0.778108
 H        -0.758536         0.680291        -0.075889
 H         0.711230         0.464520        -1.147267
 H         2.903983        -1.921569         0.299039
