19
Iteration:  4646charge 0 multiplicity 1
 C         1.332822         2.446447         1.408750
 C         1.786919         0.949672         1.529314
 C         1.710254        -0.009251         2.920749
 C         2.238393        -1.237627         2.036184
 O         1.066967        -1.438471         1.211539
 C         1.590576        -0.228078         0.503090
 C         0.885967         0.118568        -0.759595
 C         3.013060        -0.499112         0.931234
 O         3.291057         0.862369         1.387132
 H         0.226034         2.600198         1.213213
 H         1.782210         2.949550         2.273382
 H         1.812227         2.898388         0.541065
 H         2.300397         0.303770         3.772912
 H         0.655929        -0.184188         3.214752
 H         2.561390        -1.970086         2.743127
 H         1.472042         0.511836        -1.567018
 H         0.418421        -0.856058        -1.023170
 H         0.054104         0.825806        -0.558247
 H         3.884226        -0.909291         0.312728
