19
Iteration:  4960
 C         1.350185         2.299543         1.570513
 C         1.864504         0.982072         1.622579
 C         1.716727         0.073905         2.908043
 C         2.184054        -1.157143         2.113419
 O         1.095872        -1.377453         1.164744
 C         1.670843        -0.203600         0.355506
 C         0.762477        -0.033308        -0.800296
 C         3.020802        -0.467061         0.851695
 O         3.310736         0.908197         1.350716
 H         0.266259         2.138901         1.851533
 H         1.789817         2.787271         2.421445
 H         1.318939         2.873299         0.682256
 H         2.346014         0.341309         3.746843
 H         0.634677        -0.009963         3.196367
 H         2.439664        -2.075591         2.614667
 H        -0.168208        -0.488019        -0.434475
 H         0.644108         1.039898        -1.131989
 H         1.069462        -0.634045        -1.688271
 H         3.916818        -0.948504         0.368755
