19
Iteration:   832
 C         2.487443         2.256641         0.597395
 C         2.516480         0.869516         1.222965
 C         2.689541         0.383108         2.694428
 C         1.952845        -0.965331         2.395607
 O         0.617520        -0.563377         2.148904
 C         1.112740        -0.055053         0.943641
 C        -0.093867         0.339258        -0.096861
 C         2.229279        -1.086062         0.804829
 O         3.379890        -0.170335         0.492880
 H         1.600834         2.737996         0.722334
 H         3.218116         2.986994         1.150371
 H         2.989411         2.320584        -0.387608
 H         3.901790         0.440977         2.907347
 H         2.107886         0.781864         3.484046
 H         1.993285        -1.981088         2.936899
 H        -0.945975        -0.262588         0.450111
 H        -0.249964         1.386675         0.009670
 H         0.124132        -0.045649        -1.188204
 H         2.142224        -2.094613         0.245432
