19
Iteration:  1084
 C         2.589029         2.321581         0.855627
 C         2.378064         0.878181         1.161769
 C         2.668324         0.452258         2.509375
 C         2.078694        -0.953780         2.413620
 O         0.583594        -0.621236         2.211673
 C         1.099868        -0.056085         0.906208
 C         0.099972         0.289622        -0.135463
 C         2.190524        -1.134905         0.887639
 O         3.192050        -0.189985         0.369758
 H         1.848017         2.951868         1.323351
 H         3.487240         2.719310         1.335734
 H         2.863779         2.540232        -0.134286
 H         3.718128         0.484684         2.679694
 H         2.158009         1.012297         3.289574
 H         2.276120        -1.651448         3.185663
 H        -0.763332        -0.426719        -0.219270
 H        -0.383389         1.254351        -0.102260
 H         0.520303         0.195247        -1.097244
 H         2.174477        -2.231300         0.589291
