19
Iteration:  2456charge 0 multiplicity 1
 C         2.096435         2.535831         1.254599
 C         2.121615         1.045022         1.378388
 C         2.210522         0.329218         2.750397
 C         2.070013        -1.097990         2.275781
 O         0.685253        -0.982006         1.782602
 C         1.269605        -0.223644         0.668867
 C         0.414655        -0.029915        -0.512685
 C         2.626850        -0.917455         0.824833
 O         3.367972         0.322252         0.741912
 H         2.995139         2.865879         1.763468
 H         2.221732         2.840205         0.239947
 H         1.316911         3.184086         1.703993
 H         3.139451         0.595186         3.326296
 H         1.357913         0.426526         3.431113
 H         2.228420        -1.885002         3.041303
 H         0.472500         1.065059        -0.846024
 H         0.783234        -0.621336        -1.444824
 H        -0.545282        -0.408672        -0.186166
 H         3.035817        -1.761094         0.231210
