19
Iteration:  4314charge 0 multiplicity 1
 C         1.426984         2.341864         1.312048
 C         1.877520         0.966070         1.638789
 C         1.713617         0.066873         2.872577
 C         2.099374        -1.248908         2.095307
 O         0.950669        -1.353149         1.227392
 C         1.591215        -0.269851         0.512935
 C         0.965600         0.217387        -0.758720
 C         2.981951        -0.555617         1.021001
 O         3.317378         0.780557         1.309958
 H         0.354114         2.326606         1.309448
 H         1.885745         3.128340         1.953925
 H         1.793979         2.614289         0.296782
 H         2.313841         0.540778         3.656313
 H         0.642840        -0.056951         3.295772
 H         2.284472        -1.960665         2.936442
 H         1.024900         1.338248        -0.970297
 H         1.463511        -0.218510        -1.703975
 H        -0.037544        -0.193659        -0.872063
 H         3.698355        -1.132582         0.513657
