19
Iteration:  3127charge 0 multiplicity 1
 C         1.486341         2.464158         1.443652
 C         1.934890         0.975256         1.551489
 C         1.842203         0.178042         2.887818
 C         2.118337        -1.229818         2.149978
 O         0.846193        -1.206488         1.380421
 C         1.511434        -0.227125         0.529512
 C         0.915541        -0.061084        -0.811389
 C         2.908742        -0.584287         0.866581
 O         3.350183         0.683931         1.191975
 H         1.025465         2.784446         0.515963
 H         0.680598         2.669558         2.171116
 H         2.393405         3.116227         1.664549
 H         2.620382         0.615240         3.688419
 H         0.825509         0.122134         3.210172
 H         2.440070        -2.158356         2.620484
 H         0.346565         0.971003        -0.948612
 H         1.763493        -0.223275        -1.512355
 H         0.216624        -0.916933        -1.015133
 H         3.520199        -1.356479         0.374251
