19
Iteration:  1579
 C         2.539702         2.211038         0.767188
 C         2.409225         0.821557         1.144157
 C         2.649831         0.482239         2.643833
 C         2.019965        -0.948455         2.420849
 O         0.670604        -0.610882         2.105830
 C         1.089178        -0.100682         0.907516
 C         0.076488         0.346677        -0.068767
 C         2.258110        -1.094060         0.847676
 O         3.180354        -0.119189         0.450030
 H         1.562241         2.548501         0.529955
 H         2.999738         2.841729         1.525461
 H         3.194216         2.232489        -0.165085
 H         3.757789         0.571505         2.900115
 H         2.043445         1.012567         3.428380
 H         2.107811        -1.926708         3.002545
 H        -0.898638         0.281463         0.416296
 H         0.109330         1.341515        -0.510173
 H         0.068940        -0.257737        -1.024960
 H         2.497510        -2.148805         0.394820
