19
Iteration:  4534
 C         1.383152         2.505315         1.653569
 C         1.810842         0.969277         1.608091
 C         1.782744         0.147678         2.897019
 C         2.177682        -1.242638         2.069437
 O         0.941513        -1.381434         1.203715
 C         1.499633        -0.232654         0.465188
 C         1.111329        -0.090783        -0.889425
 C         2.918507        -0.463654         0.858347
 O         3.233340         0.822738         1.312219
 H         0.277224         2.537344         1.814437
 H         1.807529         2.914796         2.553311
 H         1.595903         3.055037         0.714225
 H         2.680383         0.449385         3.490969
 H         0.863558        -0.085034         3.349006
 H         2.604614        -2.096600         2.673228
 H         0.103103         0.275574        -1.035710
 H         1.840734         0.422582        -1.485316
 H         1.062878        -1.067146        -1.377858
 H         3.738381        -1.131011         0.437536
