19
Iteration:  2247charge 0 multiplicity 1
 C         2.196076         2.406511         0.999488
 C         2.264046         0.901203         1.400151
 C         2.376374         0.365707         2.782690
 C         2.005195        -1.039497         2.320218
 O         0.654845        -0.841826         1.897886
 C         1.284550        -0.217747         0.748272
 C         0.242928         0.120296        -0.405654
 C         2.564144        -0.938471         0.850500
 O         3.350835         0.190585         0.604234
 H         2.958372         2.679046         0.197941
 H         1.149018         2.604045         0.666341
 H         2.407959         3.028558         1.866592
 H         3.299814         0.469353         3.319974
 H         1.491708         0.734766         3.494166
 H         2.096928        -1.827985         3.066567
 H         0.375208         1.177845        -0.850784
 H         0.181357        -0.554811        -1.281138
 H        -0.796559         0.119802         0.100395
 H         3.123679        -1.751768         0.374576
