19
Iteration:  5000charge 0 multiplicity 1
 C         1.417182         2.482972         1.723770
 C         1.779897         0.980168         1.574296
 C         1.761264         0.013920         2.905546
 C         2.195449        -1.190270         2.088337
 O         1.085452        -1.522618         1.242121
 C         1.524420        -0.203158         0.527191
 C         1.066486        -0.047979        -0.872600
 C         2.930812        -0.480567         0.827932
 O         3.121303         0.969506         1.180107
 H         0.596816         2.702923         2.460911
 H         2.369062         2.964264         2.001046
 H         1.079816         3.050022         0.744929
 H         2.430639         0.436059         3.665102
 H         0.822256        -0.361265         3.353875
 H         2.571462        -2.058017         2.579562
 H         0.153093        -0.592430        -0.926582
 H         0.807378         1.019127        -1.065541
 H         1.726904        -0.475379        -1.678643
 H         3.610349        -1.052696         0.149062
