19
Iteration:  2291
 C         2.269856         2.528489         1.124191
 C         2.238937         0.948427         1.349620
 C         2.347344         0.413645         2.747182
 C         1.977831        -1.068965         2.326891
 O         0.590523        -0.928721         1.852145
 C         1.226133        -0.195658         0.720149
 C         0.322173        -0.010914        -0.381118
 C         2.609878        -0.954885         0.811489
 O         3.356465         0.239277         0.647223
 H         1.826060         2.678706         0.103929
 H         1.609654         3.003505         1.865173
 H         3.264312         2.976246         1.241992
 H         3.292834         0.620568         3.182222
 H         1.515601         0.744635         3.523357
 H         2.127963        -1.933084         2.953813
 H         0.720731        -0.087687        -1.450351
 H        -0.552483        -0.669955        -0.242065
 H        -0.160661         1.034167        -0.409929
 H         2.873985        -1.822253         0.197537
