19
Iteration:  1229
 C         2.675594         2.317130         0.755082
 C         2.378737         0.916937         1.228796
 C         2.707468         0.345784         2.658970
 C         2.020555        -0.967996         2.419031
 O         0.629066        -0.644599         2.244949
 C         1.052206        -0.000853         0.961377
 C         0.097009         0.129650        -0.286212
 C         2.172642        -0.970511         0.829802
 O         3.162240        -0.107258         0.415994
 H         2.427425         3.002830         1.585395
 H         3.658204         2.489347         0.379720
 H         2.035106         2.716460        -0.076145
 H         3.717113         0.268014         2.882657
 H         2.208000         0.967033         3.453363
 H         2.174524        -1.821933         3.168992
 H        -0.709617        -0.535226        -0.081019
 H        -0.331988         1.151017        -0.362716
 H         0.592008        -0.009056        -1.251189
 H         1.883139        -2.003722         0.269537
