19
Iteration:  3956
 C         1.317186         2.346921         1.484645
 C         1.990988         0.947150         1.587057
 C         1.813891         0.188512         2.893283
 C         1.949070        -1.193618         2.134977
 O         0.844663        -1.209920         1.241684
 C         1.566177        -0.169165         0.508560
 C         1.123538         0.068095        -0.938841
 C         2.967336        -0.667930         0.968627
 O         3.367520         0.688300         1.295500
 H         0.451249         2.319005         2.167395
 H         1.881729         3.214239         1.918854
 H         0.987602         2.418854         0.445054
 H         2.555737         0.542282         3.557234
 H         0.827661         0.023638         3.430209
 H         2.156911        -2.103177         2.775387
 H         1.240780        -0.783965        -1.534348
 H         0.034390         0.255683        -0.796676
 H         1.558183         0.940335        -1.388021
 H         3.759678        -1.275673         0.506435
