19
Iteration:  1097
 C         2.648334         2.428307         0.791259
 C         2.325797         0.873265         1.084271
 C         2.736116         0.445855         2.578973
 C         1.995582        -0.946997         2.457521
 O         0.618478        -0.693296         2.209405
 C         1.035384        -0.139156         0.919303
 C         0.079462         0.334241        -0.149868
 C         2.244990        -1.105428         0.899736
 O         3.172706        -0.219350         0.406362
 H         1.724770         3.026652         0.895525
 H         3.406454         2.676251         1.433646
 H         2.788410         2.552807        -0.268867
 H         3.785042         0.444327         2.663210
 H         2.241013         1.165522         3.417246
 H         2.160669        -1.834779         3.191890
 H        -0.664036        -0.427705        -0.389761
 H        -0.326839         1.279899         0.317938
 H         0.757911         0.582841        -0.938779
 H         2.241747        -2.118113         0.192636
