19
Iteration:  3764
 C         1.564786         2.426840         1.719310
 C         1.807729         0.956586         1.512328
 C         1.677843         0.167759         2.846784
 C         2.005647        -1.121811         2.129101
 O         0.908149        -1.373534         1.214853
 C         1.540553        -0.282309         0.460485
 C         1.167553        -0.048946        -0.940086
 C         2.899226        -0.562255         0.977612
 O         3.241563         0.801629         1.224273
 H         0.642684         2.663695         2.280112
 H         2.398052         2.832543         2.314806
 H         1.480459         2.895548         0.656966
 H         2.403311         0.485210         3.703568
 H         0.640723         0.072864         3.207307
 H         2.549836        -1.881865         2.781414
 H         1.400698        -0.960855        -1.533282
 H         0.205086         0.494168        -0.976686
 H         1.707296         0.751919        -1.428316
 H         3.790126        -1.193264         0.831061
