19
Iteration:  4681charge 0 multiplicity 1
 C         1.371393         2.328986         1.658387
 C         1.843850         0.964075         1.593048
 C         1.748851         0.100111         2.893988
 C         2.164241        -1.131259         2.158179
 O         1.065110        -1.479237         1.207274
 C         1.525328        -0.224872         0.421122
 C         1.014656         0.009223        -0.870486
 C         2.950472        -0.480899         0.914453
 O         3.236654         0.918131         1.187484
 H         0.323669         2.552390         1.440236
 H         1.264116         2.662242         2.717846
 H         1.953918         3.020067         1.115859
 H         2.465033         0.371937         3.643946
 H         0.678653         0.091147         3.251942
 H         2.471233        -2.017070         2.711109
 H         1.769835        -0.269625        -1.691311
 H         0.132533        -0.662723        -0.941978
 H         0.643088         1.021590        -0.868486
 H         3.633429        -1.132932         0.409486
