19
Iteration:  3556charge 0 multiplicity 1
 C         1.566390         2.481932         1.620812
 C         1.826910         1.004175         1.637485
 C         1.519206         0.153174         2.808382
 C         2.085081        -1.105306         2.187392
 O         1.013728        -1.475513         1.151284
 C         1.546766        -0.263133         0.440023
 C         1.063461        -0.059633        -0.968139
 C         2.965363        -0.516273         0.997833
 O         3.296342         0.807371         1.329189
 H         0.827616         2.825611         2.389432
 H         2.491658         2.733142         2.176225
 H         1.484851         2.956618         0.638406
 H         1.967918         0.447212         3.714464
 H         0.387636        -0.083641         2.849723
 H         2.283357        -2.002051         2.743793
 H         1.299160        -0.813203        -1.701459
 H        -0.059086        -0.002313        -0.958858
 H         1.373787         0.888508        -1.437213
 H         3.690302        -1.157830         0.548592
