19
Iteration:  1305
 C         2.485418         2.246041         0.711641
 C         2.436978         0.830554         1.123139
 C         2.622438         0.456972         2.621009
 C         2.057078        -0.943124         2.436710
 O         0.598189        -0.644842         2.161947
 C         1.109192        -0.117394         0.917473
 C         0.093170         0.384599        -0.051925
 C         2.247272        -1.065835         0.879682
 O         3.245135        -0.166018         0.411508
 H         1.502144         2.778877         0.907056
 H         3.316617         2.737539         1.243620
 H         2.665572         2.391332        -0.426607
 H         3.645676         0.415612         2.840960
 H         2.101556         0.874804         3.528616
 H         2.249864        -1.846282         3.050382
 H        -0.862262        -0.081033         0.028247
 H         0.011564         1.493847         0.008321
 H         0.458281         0.291434        -1.085096
 H         2.366758        -2.153049         0.417170
