19
Iteration:  1905charge 0 multiplicity 1
 C         2.407319         2.343269         0.843615
 C         2.418566         0.848441         1.273094
 C         2.553283         0.489463         2.732648
 C         2.001312        -1.004247         2.461501
 O         0.575035        -0.767071         1.996694
 C         1.150979        -0.199932         0.795445
 C         0.134554         0.252951        -0.219459
 C         2.377549        -0.999114         0.888858
 O         3.303731         0.002800         0.444714
 H         2.310829         2.327859        -0.220644
 H         1.625150         2.952003         1.326507
 H         3.301444         2.939513         1.189733
 H         3.591027         0.486807         3.151351
 H         1.850589         1.047419         3.319515
 H         2.076191        -1.889078         3.152652
 H        -0.796265        -0.228834        -0.017116
 H         0.086535         1.341475        -0.165073
 H         0.464819        -0.082790        -1.165689
 H         2.477995        -2.004156         0.393382
