19
Iteration:  1515charge 0 multiplicity 1
 C         2.566869         2.240118         0.874959
 C         2.350170         0.800381         1.215249
 C         2.637346         0.444850         2.660467
 C         2.034035        -0.944977         2.461343
 O         0.623226        -0.512280         2.190263
 C         1.133188        -0.036930         0.845826
 C         0.058163         0.191994        -0.190458
 C         2.243358        -1.031795         0.789287
 O         3.241055        -0.144318         0.347276
 H         1.936764         3.012847         1.367217
 H         3.611092         2.560487         1.216286
 H         2.364561         2.411516        -0.271036
 H         3.804904         0.528172         2.683999
 H         2.197376         0.981435         3.533250
 H         2.056447        -1.836628         3.197126
 H        -0.709629        -0.405171         0.314588
 H        -0.150020         1.248978        -0.369463
 H         0.176508        -0.470812        -1.116182
 H         2.173705        -2.049076         0.301279
