19
Iteration:   918charge 0 multiplicity 1
 C         2.586498         2.282983         0.786425
 C         2.416786         0.815239         1.158600
 C         2.675914         0.380921         2.609466
 C         1.971219        -0.940301         2.406554
 O         0.632119        -0.411377         2.247260
 C         1.145475        -0.038150         0.900152
 C         0.076285         0.167759        -0.077665
 C         2.185640        -1.075018         0.806458
 O         3.227292        -0.184894         0.381960
 H         1.592584         2.838176         0.826863
 H         3.330031         2.737393         1.589736
 H         2.937992         2.213051        -0.310621
 H         3.903782         0.261289         2.737156
 H         2.217540         0.982134         3.388452
 H         2.073325        -1.905649         3.010516
 H        -0.205419        -0.674442        -0.806866
 H        -0.814816         0.461464         0.492112
 H         0.103986         0.915590        -0.956628
 H         1.986675        -1.968249         0.225641
