19
Iteration:   547charge 0 multiplicity 1
 C         2.561038         2.270518         0.670190
 C         2.436580         0.854580         1.239918
 C         2.682079         0.370712         2.681163
 C         2.015072        -0.973632         2.384802
 O         0.667417        -0.591997         2.218054
 C         1.070873         0.077020         0.961531
 C         0.153605         0.253247        -0.203695
 C         2.167254        -1.071803         0.843911
 O         3.155194        -0.164767         0.441269
 H         2.051582         2.929839         1.460725
 H         3.557041         2.698972         0.674310
 H         1.982894         2.313424        -0.247891
 H         3.740538         0.302060         2.991511
 H         1.967775         0.748766         3.305191
 H         2.136294        -1.730464         3.096105
 H        -0.465520        -0.588265        -0.307967
 H        -0.455532         1.126439        -0.168349
 H         0.735407         0.386289        -1.119847
 H         2.117526        -2.009555         0.179756
