19
Iteration:  3005charge 0 multiplicity 1
 C         1.621786         2.399106         1.364579
 C         1.984650         1.015636         1.519595
 C         1.999840         0.223190         2.889094
 C         2.078194        -1.135944         2.267452
 O         0.798757        -1.265608         1.422564
 C         1.407315        -0.254116         0.579437
 C         0.878907         0.065567        -0.809234
 C         2.836877        -0.727437         0.946020
 O         3.298956         0.643212         1.028191
 H         2.045187         3.115501         2.111682
 H         1.781183         2.672065         0.334160
 H         0.571938         2.395790         1.640607
 H         2.933018         0.438577         3.467220
 H         1.061540         0.367961         3.488468
 H         2.165460        -1.967244         2.967523
 H         1.351654        -0.484788        -1.607476
 H        -0.237194         0.010382        -0.814645
 H         1.137013         1.171530        -0.959328
 H         3.515196        -1.355773         0.411562
