19
Iteration:  2465
 C         2.058298         2.558070         1.268945
 C         2.192294         1.033444         1.396551
 C         2.256278         0.377081         2.756506
 C         2.082345        -1.053532         2.290460
 O         0.704573        -0.979261         1.726559
 C         1.182490        -0.277230         0.717881
 C         0.399871        -0.007629        -0.569603
 C         2.638384        -0.927912         0.828487
 O         3.382331         0.267261         0.780281
 H         3.091921         2.976998         1.589823
 H         1.860939         2.957039         0.259446
 H         1.298578         2.772621         2.038418
 H         3.109129         0.601712         3.352486
 H         1.346950         0.661334         3.399078
 H         2.282532        -1.935090         2.895233
 H         0.489097         1.008379        -1.077921
 H         0.608066        -0.858577        -1.303125
 H        -0.716055        -0.084614        -0.388306
 H         3.096909        -1.699223         0.191279
