19
Iteration:  2882charge 0 multiplicity 1
 C         1.726387         2.375099         1.325206
 C         2.077883         0.941908         1.429231
 C         1.975063         0.354208         2.881859
 C         2.005587        -1.105678         2.247643
 O         0.855655        -1.267224         1.472262
 C         1.364019        -0.221538         0.676379
 C         0.705857         0.124709        -0.690717
 C         2.832992        -0.765615         0.892889
 O         3.345620         0.547862         0.970628
 H         0.791046         2.530359         0.883040
 H         1.728222         2.778094         2.361640
 H         2.518416         2.866474         0.830713
 H         2.788492         0.684432         3.481381
 H         0.983001         0.526789         3.334833
 H         2.215242        -1.952434         2.921666
 H        -0.133845         0.824805        -0.635229
 H         1.505085         0.541161        -1.333174
 H         0.223640        -0.755068        -1.134628
 H         3.489131        -1.536719         0.388274
