19
Iteration:  1376charge 0 multiplicity 1
 C         2.647152         2.429868         0.836672
 C         2.431064         0.860596         1.097038
 C         2.610605         0.374124         2.653437
 C         2.016289        -0.950234         2.459380
 O         0.652841        -0.463408         2.163383
 C         1.100942        -0.098192         0.880936
 C        -0.001674         0.167789        -0.113064
 C         2.253188        -1.169843         0.846422
 O         3.184315        -0.217062         0.371327
 H         1.776752         3.000410         1.149924
 H         3.505257         2.832241         1.432968
 H         2.711001         2.633948        -0.206240
 H         3.805355         0.357340         2.791695
 H         2.181992         1.178798         3.301932
 H         2.103851        -1.765512         3.258084
 H        -0.132997        -0.658332        -0.954656
 H        -0.951757         0.346555         0.461792
 H         0.252655         1.109710        -0.715148
 H         2.229808        -2.084253         0.332166
