19
Iteration:  2156
 C         2.328757         2.452669         1.101069
 C         2.331748         0.965369         1.281450
 C         2.465254         0.394826         2.783677
 C         1.979128        -0.984052         2.361972
 O         0.609684        -0.784291         1.912919
 C         1.183774        -0.152498         0.716812
 C         0.147075        -0.011433        -0.383714
 C         2.456927        -0.994765         0.818311
 O         3.397444         0.113023         0.566065
 H         2.456174         2.976233         1.999221
 H         2.977975         2.828410         0.316412
 H         1.302034         2.799909         0.861281
 H         3.602846         0.451494         3.036301
 H         1.940271         0.841448         3.558757
 H         2.158763        -1.787841         3.083478
 H        -0.670029        -0.644504        -0.015822
 H        -0.115989         1.049746        -0.254447
 H         0.520485        -0.448530        -1.363648
 H         2.576375        -1.928926         0.292032
