19
Iteration:  2957
 C         1.672529         2.519336         1.416045
 C         2.056815         1.046202         1.497255
 C         1.972590         0.215076         2.899291
 C         2.041392        -1.161342         2.178770
 O         0.791328        -1.197528         1.435632
 C         1.459491        -0.289816         0.542644
 C         0.702552        -0.029271        -0.758607
 C         2.856426        -0.731783         0.916845
 O         3.352797         0.624108         1.074180
 H         1.357942         2.831879         2.356008
 H         2.625016         2.965201         1.106978
 H         0.890273         2.768042         0.702051
 H         2.750706         0.467860         3.614841
 H         0.958475         0.455743         3.252321
 H         2.331452        -2.112392         2.673049
 H         1.417044         0.308225        -1.571935
 H         0.346881        -1.044394        -1.029406
 H        -0.150040         0.644129        -0.751823
 H         3.605980        -1.488012         0.521233
