19
Iteration:  1573charge 0 multiplicity 1
 C         2.537808         2.227766         0.729759
 C         2.391297         0.829297         1.228138
 C         2.678443         0.481534         2.629849
 C         2.042068        -0.943268         2.434273
 O         0.618430        -0.670952         2.083625
 C         1.100945        -0.062101         0.893224
 C         0.094667         0.332522        -0.082149
 C         2.240995        -1.066980         0.879913
 O         3.191116        -0.126874         0.411567
 H         1.530438         2.721608         0.509264
 H         3.134402         2.831421         1.499538
 H         3.233528         2.288017        -0.100030
 H         3.774949         0.430825         2.863369
 H         2.112809         0.979824         3.381317
 H         2.153193        -1.823300         3.068357
 H        -0.859858         0.241917         0.507557
 H         0.041403         1.364696        -0.483501
 H         0.245764        -0.373982        -0.911453
 H         2.212110        -2.047726         0.523547
