19
Iteration:  3407charge 0 multiplicity 1
 C         1.536119         2.527556         1.505629
 C         1.786170         0.992653         1.633320
 C         1.599250         0.031201         2.844133
 C         2.117026        -1.203549         2.141302
 O         1.053599        -1.386850         1.111875
 C         1.518218        -0.209272         0.482064
 C         1.070415        -0.029635        -0.899562
 C         2.948108        -0.548119         0.962105
 O         3.248676         0.820908         1.414238
 H         0.896789         2.696678         0.645441
 H         1.024138         2.979484         2.324350
 H         2.510306         3.022572         1.465718
 H         2.055439         0.514062         3.752051
 H         0.555656        -0.033579         3.078106
 H         2.322071        -2.102379         2.771615
 H         0.491876        -0.972819        -0.992482
 H         0.387249         0.782759        -1.105151
 H         1.797216        -0.015268        -1.687119
 H         3.804842        -1.103763         0.639097
