19
Iteration:  2216
 C         2.212985         2.415182         0.924872
 C         2.241855         0.915427         1.382164
 C         2.488271         0.422847         2.741433
 C         2.049033        -1.101994         2.344259
 O         0.614614        -0.963205         1.922134
 C         1.149798        -0.119087         0.805801
 C         0.347271         0.201828        -0.399588
 C         2.482994        -0.966945         0.876685
 O         3.313516         0.176804         0.655493
 H         3.242913         2.765216         0.609370
 H         1.556463         2.628404         0.070012
 H         1.736492         2.964759         1.750174
 H         3.483668         0.587007         3.027648
 H         1.703242         0.747455         3.529578
 H         2.228077        -1.877389         3.081755
 H        -0.203619         1.162347        -0.349719
 H         0.898251         0.165852        -1.327815
 H        -0.397655        -0.533755        -0.609070
 H         2.807180        -1.802455         0.212929
