19
Iteration:  3788charge 0 multiplicity 1
 C         1.369770         2.387507         1.529505
 C         1.868454         0.942507         1.532263
 C         1.728312         0.160122         2.858833
 C         2.044731        -1.272554         2.210997
 O         0.902255        -1.288718         1.286980
 C         1.542748        -0.259965         0.555613
 C         1.190240         0.169365        -0.934973
 C         2.931781        -0.618349         0.976727
 O         3.331847         0.726934         1.214599
 H         0.307360         2.384118         1.864084
 H         1.857139         3.035380         2.266790
 H         1.356599         2.783952         0.451014
 H         2.353043         0.587630         3.725211
 H         0.722467         0.044973         3.125261
 H         2.225748        -2.128808         2.896788
 H         1.301135        -0.735302        -1.584233
 H         0.279053         0.671051        -1.012993
 H         1.837491         0.887062        -1.374239
 H         3.487373        -1.206256         0.208716
