19
Iteration:  2190
 C         2.269087         2.416956         1.017053
 C         2.268804         0.869467         1.323761
 C         2.429186         0.412042         2.811166
 C         2.063652        -1.042004         2.373714
 O         0.628198        -0.818385         1.984007
 C         1.145519        -0.180678         0.755100
 C         0.282295         0.099307        -0.397642
 C         2.455695        -0.985081         0.786417
 O         3.337896         0.168151         0.586945
 H         3.189336         2.896552         1.387288
 H         2.264288         2.660209        -0.081114
 H         1.337285         2.806520         1.411688
 H         3.524357         0.619740         3.125018
 H         1.676610         0.683327         3.543708
 H         2.248028        -1.893755         3.063223
 H        -0.715298         0.499729        -0.109721
 H         0.736513         0.933984        -0.995202
 H         0.163360        -0.644711        -1.294135
 H         2.718692        -1.803481         0.122245
