19
Iteration:  2400
 C         2.061140         2.516629         1.090526
 C         2.188342         0.939942         1.325919
 C         2.238690         0.412797         2.780791
 C         2.034632        -1.165893         2.250843
 O         0.664833        -0.985606         1.813659
 C         1.309814        -0.170240         0.716938
 C         0.371939         0.136138        -0.463649
 C         2.603895        -0.915644         0.852558
 O         3.424764         0.235057         0.804569
 H         1.891498         3.001232         2.075031
 H         2.859812         3.048948         0.594095
 H         1.270304         2.802416         0.428198
 H         3.256662         0.456350         3.052429
 H         1.457112         0.550079         3.591616
 H         2.283906        -2.049819         2.834424
 H        -0.655826         0.050614         0.026875
 H         0.640680         1.085144        -0.988402
 H         0.440980        -0.769796        -1.119421
 H         2.998174        -1.775606         0.305726
