19
Iteration:  4192
 C         1.578791         2.446442         1.574221
 C         1.806376         0.995473         1.564085
 C         1.658328         0.205079         2.795096
 C         2.036997        -1.179343         2.167824
 O         0.951375        -1.298029         1.179428
 C         1.588330        -0.204196         0.433438
 C         0.973378        -0.038073        -0.904445
 C         2.935268        -0.635971         1.056580
 O         3.330222         0.725991         1.318178
 H         0.749710         2.779649         2.212823
 H         2.521439         2.953004         1.872847
 H         1.372238         2.881311         0.627089
 H         2.369092         0.245238         3.599448
 H         0.634949         0.097260         3.256949
 H         2.244859        -2.058566         2.738360
 H         0.230130        -0.809972        -1.142394
 H         0.437106         0.921307        -0.965805
 H         1.852705        -0.252008        -1.611399
 H         3.735819        -1.233198         0.543999
