19
Iteration:  4042charge 0 multiplicity 1
 C         1.568111         2.415894         1.544710
 C         1.898675         1.015235         1.584771
 C         1.733396         0.113819         2.848156
 C         1.978945        -1.199715         2.144825
 O         0.940272        -1.183661         1.195645
 C         1.610677        -0.203027         0.427453
 C         0.916142        -0.144445        -0.903432
 C         2.962961        -0.636288         0.951496
 O         3.292695         0.754261         1.353397
 H         0.629738         2.692260         1.046851
 H         1.409043         2.868176         2.586071
 H         2.291386         3.145169         1.145011
 H         2.346566         0.550733         3.586462
 H         0.707650         0.046829         3.404311
 H         2.430651        -2.059079         2.690354
 H         0.617147        -1.111819        -1.179284
 H         0.000548         0.449587        -0.721157
 H         1.516003         0.474222        -1.634020
 H         3.881650        -1.080070         0.449257
