19
Iteration:  3151charge 0 multiplicity 1
 C         1.384409         2.321374         1.474162
 C         1.960277         0.956007         1.562439
 C         1.894805         0.193596         2.853342
 C         2.036841        -1.161853         2.215300
 O         0.841327        -1.206871         1.309531
 C         1.545899        -0.185130         0.519381
 C         0.908643         0.009255        -0.857928
 C         2.949750        -0.646551         0.936921
 O         3.413911         0.726324         1.180917
 H         0.556161         2.250789         0.792615
 H         0.863895         2.630426         2.435041
 H         2.082286         3.132124         1.127867
 H         2.893526         0.346725         3.384913
 H         1.012166         0.312462         3.488410
 H         2.131958        -1.981730         2.946426
 H         0.957709         1.089877        -1.269868
 H         1.420500        -0.699436        -1.539783
 H        -0.113133        -0.313203        -0.813345
 H         3.532160        -1.472363         0.492869
