19
Iteration:  3133
 C         1.435213         2.422977         1.446794
 C         2.000717         0.986775         1.541108
 C         1.908831         0.206934         2.905275
 C         2.075324        -1.173921         2.116489
 O         0.844620        -1.179276         1.344329
 C         1.488449        -0.236098         0.537230
 C         0.949266        -0.077075        -0.789501
 C         2.908973        -0.655048         0.896988
 O         3.325655         0.679750         1.211695
 H         0.878558         2.662149         0.494773
 H         0.815640         2.710870         2.319368
 H         2.255833         3.079799         1.583645
 H         2.476160         0.627878         3.627515
 H         0.823146         0.097788         3.219871
 H         2.393432        -2.177652         2.448833
 H         0.601956         0.880374        -0.837882
 H         1.637679        -0.296065        -1.602252
 H         0.079329        -0.746659        -0.894934
 H         3.697564        -1.096728         0.231957
