19
Iteration:  2234charge 0 multiplicity 1
 C        -0.003068        -0.008774        -0.032098
 C         1.412444        -0.107468         0.067926
 O         2.117335         0.136974        -1.188698
 C         3.203973        -0.158722        -0.533493
 C         3.423154         1.044484         0.412668
 C         2.118160         0.705831         1.200344
 O         1.447169         1.736434         1.880129
 C         2.466020        -0.607876         1.951143
 C         2.467014        -1.243195         0.436965
 H        -0.466135        -0.520259         0.863158
 H        -0.165369         1.083821         0.070986
 H        -0.420567        -0.427937        -0.955806
 H         3.942899        -0.595775        -1.221470
 H         4.317684         1.349815         1.034547
 H         3.292811         1.947854        -0.287941
 H         1.042842         1.459449         2.695858
 H         3.452667        -0.630230         2.422123
 H         1.643246        -1.061466         2.496685
 H         2.282878        -2.294488         0.247113
