19
Iteration:   904charge 0 multiplicity 1
 C        -0.081436         0.016155        -0.003563
 C         1.390708        -0.076626         0.032629
 O         2.113335         0.160995        -1.263995
 C         3.297555        -0.207313        -0.432300
 C         3.545419         1.017986         0.454235
 C         2.133206         0.755784         1.198403
 O         1.362060         1.732072         1.848011
 C         2.516151        -0.654584         1.913906
 C         2.402147        -1.237564         0.518878
 H        -0.283827        -0.052354         1.030682
 H        -0.550846         0.942339        -0.326668
 H        -0.623612        -0.768924        -0.591310
 H         4.240285        -0.495591        -1.120389
 H         4.356867         0.736970         1.179963
 H         3.694107         1.965518        -0.093728
 H         0.392673         1.759836         1.635054
 H         3.539634        -0.758713         2.309864
 H         1.800156        -0.908004         2.675429
 H         2.389099        -2.297912         0.241581
