19
Iteration:  3190charge 0 multiplicity 1
 C        -0.051145        -0.348099         0.069793
 C         1.413746        -0.087163         0.061479
 O         1.968197         0.154814        -1.217820
 C         3.275907        -0.168403        -0.513813
 C         3.372515         0.993579         0.337938
 C         2.110749         0.720928         1.210334
 O         1.571219         1.814593         1.840946
 C         2.455208        -0.524321         1.959474
 C         2.537030        -1.097901         0.544529
 H        -0.638045        -0.244180         1.000874
 H        -0.563570         0.496151        -0.478617
 H        -0.414326        -1.267587        -0.465129
 H         4.167158        -0.419290        -1.139988
 H         4.365024         1.087666         0.880047
 H         3.203064         1.939029        -0.204239
 H         1.427693         2.577615         1.210265
 H         3.340157        -0.566560         2.633033
 H         1.651226        -1.001778         2.551107
 H         2.469281        -2.197563         0.480745
