19
Iteration:  3850charge 0 multiplicity 1
 C        -0.152376        -0.398600        -0.065789
 C         1.333705        -0.293868         0.047037
 O         1.981406         0.029470        -1.193828
 C         3.241507        -0.166858        -0.464789
 C         3.357076         1.132790         0.303285
 C         2.150480         0.845588         1.209539
 O         1.646863         1.980154         1.911176
 C         2.560320        -0.476884         1.982062
 C         2.552172        -1.137374         0.533849
 H        -0.644870        -0.465380         1.005540
 H        -0.621827         0.530228        -0.597732
 H        -0.366562        -1.178417        -0.764177
 H         3.968628        -0.536280        -1.151558
 H         4.437053         1.122124         0.775874
 H         3.375665         1.986655        -0.365176
 H         0.740082         1.712473         2.216517
 H         3.503450        -0.569707         2.473967
 H         1.600315        -0.767667         2.472492
 H         2.452869        -2.261642         0.390734
