19
Iteration:  3101charge 0 multiplicity 1
 C        -0.051197        -0.235902         0.082566
 C         1.397157        -0.220207         0.060884
 O         1.986441         0.101352        -1.266155
 C         3.284972        -0.234846        -0.444292
 C         3.359020         1.163452         0.285719
 C         2.196364         0.796130         1.216431
 O         1.461891         1.820326         1.830439
 C         2.493465        -0.529993         1.950518
 C         2.470736        -1.208381         0.518417
 H        -0.223471        -0.717393         1.130480
 H        -0.322218         0.810430         0.007983
 H        -0.490292        -0.861176        -0.674212
 H         4.047691        -0.805281        -1.015292
 H         4.353350         1.245922         0.784144
 H         3.043257         2.030588        -0.301694
 H         2.098931         2.591610         1.901737
 H         3.352212        -0.664723         2.613559
 H         1.554373        -0.720105         2.603216
 H         2.604588        -2.244856         0.346124
