19
Iteration:  1136charge 0 multiplicity 1
 C        -0.169407        -0.320316        -0.264723
 C         1.343455        -0.100426        -0.027118
 O         2.143426         0.105354        -1.254587
 C         3.236714        -0.178267        -0.363351
 C         3.412352         1.063676         0.443776
 C         2.154205         0.809733         1.323851
 O         1.736037         1.969230         2.015041
 C         2.325844        -0.643307         1.906684
 C         2.328886        -1.177307         0.438160
 H        -0.542374        -0.783526         0.629327
 H        -0.553678         0.618869        -0.577078
 H        -0.254833        -0.943851        -1.102433
 H         4.204599        -0.547276        -0.916207
 H         4.378937         1.120796         1.013370
 H         3.385306         2.000454        -0.178015
 H         2.037937         1.892621         2.962626
 H         3.122249        -0.727187         2.564010
 H         1.474713        -1.252639         2.240010
 H         2.100193        -2.229198         0.184233
