19
Iteration:   126charge 0 multiplicity 1
 C        -0.038200        -0.228287        -0.296588
 C         1.365649        -0.097369         0.051297
 O         2.070252         0.217382        -1.149626
 C         3.242719        -0.176542        -0.471881
 C         3.374793         1.008461         0.481033
 C         2.135343         0.671728         1.309441
 O         1.727089         1.919963         1.793138
 C         2.386240        -0.659563         1.999699
 C         2.381014        -1.152225         0.554546
 H        -0.612755        -0.674547         0.565094
 H        -0.536689         0.757817        -0.583040
 H        -0.029640        -0.912061        -1.205204
 H         4.034383        -0.356509        -1.216371
 H         4.200421         0.913790         1.228447
 H         3.277430         1.975537        -0.020577
 H         0.891863         1.734536         2.290585
 H         3.223203        -0.993250         2.686662
 H         1.396913        -1.003860         2.561587
 H         2.243454        -2.244967         0.340028
