19
Iteration:  3791charge 0 multiplicity 1
 C        -0.177933        -0.438763         0.109036
 C         1.305714        -0.156592        -0.002556
 O         2.009504         0.072024        -1.215581
 C         3.318827        -0.233341        -0.483075
 C         3.518554         1.084584         0.382547
 C         2.101547         0.850723         1.175212
 O         1.556395         1.956909         1.840940
 C         2.516521        -0.443788         1.860947
 C         2.515185        -1.103885         0.488642
 H        -0.327895        -0.885631         1.083688
 H        -0.696021         0.498827        -0.160311
 H        -0.389988        -1.361193        -0.537219
 H         3.964506        -0.701237        -1.291333
 H         4.299547         0.969253         1.158549
 H         3.660222         2.045288        -0.242659
 H         0.951711         1.616214         2.568296
 H         3.332678        -0.608526         2.594716
 H         1.695591        -0.809074         2.438329
 H         2.282743        -2.143215         0.476720
