19
Iteration:  3844
 C        -0.193899        -0.388892        -0.103875
 C         1.331282        -0.274731         0.126454
 O         1.967377         0.051376        -1.154639
 C         3.248577        -0.130902        -0.474955
 C         3.395931         1.136998         0.253738
 C         2.139499         0.873888         1.153862
 O         1.675064         2.005591         1.907194
 C         2.511940        -0.568424         1.964713
 C         2.562675        -1.179390         0.596088
 H        -0.592704        -0.694570         0.807552
 H        -0.549299         0.436316        -0.639939
 H        -0.299677        -1.285917        -0.825257
 H         4.062401        -0.570061        -1.114458
 H         4.318749         1.305143         0.724981
 H         3.261008         2.057314        -0.362339
 H         0.769710         1.709790         2.212274
 H         3.534675        -0.574168         2.489821
 H         1.702686        -0.879535         2.637915
 H         2.570909        -2.251499         0.314677
