19
Iteration:   240
 C        -0.087558        -0.089221        -0.194262
 C         1.380277        -0.000994         0.050642
 O         2.070884         0.153477        -1.253319
 C         3.227888        -0.212273        -0.449482
 C         3.430438         0.889943         0.539707
 C         2.153805         0.717332         1.245335
 O         1.519887         1.790369         1.900694
 C         2.559460        -0.609714         1.951597
 C         2.415530        -1.079301         0.502730
 H        -0.698056        -0.452481         0.653486
 H        -0.485921         0.868325        -0.528700
 H        -0.255889        -0.837151        -0.966659
 H         4.076143        -0.540738        -1.099893
 H         4.311619         0.503650         1.109532
 H         3.537715         1.915690         0.105633
 H         0.543141         1.706947         1.819691
 H         3.608772        -0.608797         2.389919
 H         1.767234        -1.137915         2.503602
 H         2.194883        -2.123457         0.376204
