19
Iteration:  1932
 C        -0.064630        -0.136643        -0.081373
 C         1.387667        -0.027986         0.013085
 O         2.102515         0.292296        -1.163157
 C         3.344604        -0.223617        -0.457453
 C         3.449953         0.985827         0.425412
 C         2.145898         0.726797         1.269758
 O         1.503759         1.674910         2.012723
 C         2.383930        -0.623288         1.863659
 C         2.427423        -1.209185         0.400954
 H        -0.607729         0.079491         0.822606
 H        -0.406562         0.671186        -0.814600
 H        -0.423924        -1.093353        -0.477609
 H         4.267303        -0.392435        -1.051101
 H         4.443114         1.057297         0.849422
 H         3.269966         1.819376        -0.321481
 H         0.877109         2.185881         1.507710
 H         3.285546        -0.707850         2.529635
 H         1.388487        -0.929699         2.348950
 H         2.319760        -2.290605         0.288724
