19
Iteration:  1657charge 0 multiplicity 1
 C        -0.019330        -0.333501        -0.028553
 C         1.375329         0.028961        -0.003936
 O         2.109126         0.330658        -1.177864
 C         3.277615        -0.187920        -0.456058
 C         3.537990         0.931655         0.521207
 C         2.134625         0.697751         1.223517
 O         1.473857         1.915703         1.789519
 C         2.352663        -0.703088         1.929490
 C         2.385378        -1.134130         0.401007
 H        -0.393469        -0.800736         0.927559
 H        -0.761703         0.532451        -0.060949
 H        -0.222345        -1.134956        -0.737545
 H         3.986512        -0.683513        -1.116133
 H         4.449787         1.014855         1.187131
 H         3.215957         1.789673        -0.082734
 H         1.918844         2.062072         2.659373
 H         3.271431        -1.120585         2.347680
 H         1.546630        -1.255984         2.408625
 H         2.135499        -2.145112         0.106912
