19
Iteration:  3060
 C        -0.110075        -0.167308         0.219113
 C         1.436651        -0.206111         0.062447
 O         1.953460         0.132510        -1.183947
 C         3.273165        -0.215923        -0.486343
 C         3.488245         1.042219         0.424692
 C         2.156443         0.735887         1.181731
 O         1.310896         1.812574         1.676868
 C         2.632576        -0.549550         1.901356
 C         2.494258        -1.179653         0.513031
 H        -0.623459        -0.392100         1.156215
 H        -0.334085         0.898403        -0.093671
 H        -0.565617        -0.751989        -0.603567
 H         4.110209        -0.590836        -1.128849
 H         4.305995         0.863363         1.210347
 H         3.762457         2.031649        -0.014338
 H         1.613205         2.644784         1.258995
 H         3.678168        -0.481539         2.344374
 H         1.727235        -0.855095         2.445848
 H         2.634208        -2.230800         0.216285
