19
Iteration:  4562
 C        -0.120970        -0.253129         0.065399
 C         1.409432        -0.144464         0.101899
 O         1.998387         0.034498        -1.174737
 C         3.258222        -0.176365        -0.561607
 C         3.370472         1.125626         0.310016
 C         2.170110         0.788816         1.214684
 O         1.495050         1.855469         1.731962
 C         2.538326        -0.573257         1.973888
 C         2.575645        -1.137728         0.571154
 H        -0.550196        -0.792527         0.881677
 H        -0.590442         0.747338         0.163235
 H        -0.414721        -0.812406        -0.866070
 H         3.979187        -0.509323        -1.268022
 H         4.301108         1.403279         0.657784
 H         3.078153         2.013671        -0.260625
 H         1.187767         1.768515         2.615205
 H         3.391996        -0.488751         2.678066
 H         1.638814        -1.067755         2.532080
 H         2.676429        -2.276310         0.312909
