19
Iteration:  4440
 C        -0.085092        -0.363938         0.081178
 C         1.358944        -0.123430         0.035505
 O         1.986647         0.023398        -1.179117
 C         3.268237        -0.174510        -0.532541
 C         3.394977         1.076805         0.372933
 C         2.182759         0.800968         1.172005
 O         1.415893         1.832060         1.906589
 C         2.628707        -0.516703         1.870828
 C         2.459069        -1.108367         0.527224
 H        -0.436793        -0.265054         1.065545
 H        -0.630308         0.533862        -0.399902
 H        -0.340279        -1.322705        -0.459879
 H         4.151971        -0.409872        -1.230019
 H         4.317793         0.985457         0.851254
 H         3.529452         1.995896        -0.242639
 H         1.686405         2.688524         1.559132
 H         3.576168        -0.244563         2.374663
 H         1.711728        -0.753943         2.475517
 H         2.498968        -2.213241         0.517354
