19
Iteration:   391charge 0 multiplicity 1
 C        -0.198056         0.053628        -0.043999
 C         1.421170        -0.168767        -0.088109
 O         2.170914         0.069878        -1.290830
 C         3.404174        -0.137827        -0.420269
 C         3.419396         1.000593         0.524106
 C         2.016281         0.660955         1.230058
 O         1.480483         1.738279         1.978190
 C         2.359743        -0.643824         1.944082
 C         2.494181        -1.173528         0.390266
 H        -0.657386         0.149409         1.009024
 H        -0.287796         1.177657        -0.395069
 H        -0.912273        -0.572346        -0.686660
 H         4.379193        -0.372284        -0.855302
 H         4.293501         0.881009         1.219031
 H         3.512701         2.036768         0.090958
 H         1.954265         2.541984         1.611663
 H         3.268374        -0.758037         2.635098
 H         1.461028        -1.173499         2.308861
 H         2.567425        -2.170274         0.102854
