19
Iteration:  2067
 C        -0.131992        -0.019740        -0.026601
 C         1.423559        -0.105570         0.013319
 O         2.165143         0.102872        -1.235615
 C         3.330992        -0.207385        -0.468017
 C         3.340307         1.078141         0.424648
 C         2.090541         0.703024         1.193591
 O         1.497410         1.780960         1.905715
 C         2.513418        -0.651908         1.896699
 C         2.440261        -1.169079         0.474821
 H        -0.596701        -0.683453         0.748574
 H        -0.262093         0.987295         0.221751
 H        -0.598115        -0.155309        -1.050481
 H         4.239315        -0.496167        -1.012760
 H         4.123340         1.287519         1.164837
 H         3.137400         1.927917        -0.220741
 H         1.053850         1.294760         2.600947
 H         3.455426        -0.846369         2.427183
 H         1.646801        -0.987152         2.438842
 H         2.127942        -2.221916         0.326041
