19
Iteration:   477charge 0 multiplicity 1
 C        -0.124822        -0.240872        -0.152881
 C         1.369976        -0.073709         0.024322
 O         2.175628         0.250589        -1.196809
 C         3.281640        -0.205453        -0.425319
 C         3.430009         0.992168         0.563948
 C         2.076738         0.676087         1.242868
 O         1.682271         1.828471         1.973452
 C         2.250430        -0.620091         1.895793
 C         2.395748        -1.166317         0.386216
 H        -0.579738        -0.650538         0.759502
 H        -0.520628         0.770074        -0.291209
 H        -0.358743        -0.796656        -1.050668
 H         4.125844        -0.441818        -1.073920
 H         4.274472         0.914680         1.244718
 H         3.425937         1.876899        -0.089719
 H         1.791068         2.546112         1.344067
 H         3.135052        -0.790876         2.515063
 H         1.411611        -1.126838         2.335155
 H         2.422422        -2.127067        -0.055587
