19
Iteration:  4078charge 0 multiplicity 1
 C        -0.109379        -0.248482         0.096682
 C         1.349949        -0.120380         0.018970
 O         2.015733         0.044178        -1.242457
 C         3.284064        -0.189999        -0.482580
 C         3.465598         1.088548         0.376824
 C         2.144341         0.820837         1.120583
 O         1.466614         1.785255         1.870840
 C         2.532395        -0.552370         1.950217
 C         2.483825        -1.098825         0.530331
 H        -0.353198        -0.348554         1.197269
 H        -0.644985         0.502023        -0.581451
 H        -0.479651        -1.170713        -0.254261
 H         4.201794        -0.456600        -1.007152
 H         4.324875         1.007874         1.102789
 H         3.634771         1.972077        -0.223966
 H         0.957387         2.339163         1.256341
 H         3.471146        -0.485342         2.632516
 H         1.676449        -1.084070         2.516136
 H         2.686648        -2.161333         0.445961
