19
Iteration:  4519
 C        -0.122395        -0.313393         0.108000
 C         1.320971        -0.087672         0.078424
 O         2.086813         0.059116        -1.294380
 C         3.253881        -0.210329        -0.529298
 C         3.388559         1.035070         0.347133
 C         2.117369         0.708916         1.187006
 O         1.525322         1.896207         1.871399
 C         2.567318        -0.427971         1.922936
 C         2.543686        -1.081006         0.518065
 H        -0.286835        -0.642278         1.135640
 H        -0.893077         0.466990        -0.093437
 H        -0.346986        -1.299697        -0.380853
 H         4.021593        -0.582772        -1.147931
 H         4.180231         1.054542         1.023793
 H         3.321005         1.970421        -0.211114
 H         0.577884         1.885338         1.800502
 H         3.481061        -0.488965         2.485336
 H         1.998466        -1.091288         2.580646
 H         2.331722        -2.253833         0.453839
