19
Iteration:  1039charge 0 multiplicity 1
 C        -0.166155        -0.028078         0.058421
 C         1.332549        -0.162570        -0.100865
 O         2.163375         0.154002        -1.218699
 C         3.333926        -0.264759        -0.383960
 C         3.468069         1.092723         0.578443
 C         2.025461         0.687510         1.174342
 O         1.562317         1.829135         1.786926
 C         2.483434        -0.627499         1.865601
 C         2.403489        -1.215750         0.438791
 H        -0.281401        -0.321984         1.118068
 H        -0.370499         1.011231        -0.210336
 H        -0.789020        -0.680501        -0.532355
 H         4.206129        -0.598271        -1.012023
 H         4.263313         0.973990         1.315653
 H         3.663997         1.995389        -0.025675
 H         0.661034         1.778218         2.230628
 H         3.404631        -0.500045         2.362189
 H         1.669474        -1.109039         2.442802
 H         2.402427        -2.279518         0.114828
