19
Iteration:  4065
 C        -0.106524        -0.323019         0.101047
 C         1.457695        -0.129192         0.037287
 O         2.015548         0.118939        -1.272750
 C         3.280188        -0.220546        -0.478482
 C         3.494179         1.071752         0.346704
 C         2.220941         0.840292         1.217688
 O         1.392712         1.858820         1.885917
 C         2.540664        -0.538612         1.956293
 C         2.472000        -1.218104         0.526246
 H        -0.620890        -0.082603         1.058528
 H        -0.587371         0.545677        -0.408425
 H        -0.279042        -1.252520        -0.423493
 H         3.874423        -0.615317        -1.269400
 H         4.413621         1.131256         0.950451
 H         3.335457         1.897019        -0.290940
 H         0.744720         2.169016         1.223111
 H         3.488758        -0.646948         2.629757
 H         1.573292        -0.643349         2.544028
 H         2.225525        -2.159235         0.171098
