19
Iteration:  3514
 C        -0.119212        -0.339470         0.050086
 C         1.321453        -0.102342         0.065480
 O         1.988649         0.077322        -1.194820
 C         3.304554        -0.213235        -0.469360
 C         3.441724         1.065573         0.424891
 C         2.102322         0.855584         1.162069
 O         1.538601         1.857887         1.782646
 C         2.505479        -0.530027         1.873000
 C         2.453614        -1.115537         0.488900
 H        -0.413888        -0.826559         1.020485
 H        -0.736318         0.502379        -0.214388
 H        -0.245294        -1.203862        -0.605291
 H         4.120329        -0.572146        -1.125243
 H         4.278076         1.018376         1.149869
 H         3.682541         2.019920        -0.021616
 H         1.906669         2.061613         2.649156
 H         3.553716        -0.544777         2.128158
 H         1.897910        -0.905463         2.734024
 H         2.397212        -2.175206         0.203020
