19
Iteration:  1319
 C        -0.165142        -0.339653        -0.215521
 C         1.260674        -0.117247         0.032450
 O         2.017200         0.142693        -1.257243
 C         3.248348        -0.160906        -0.532398
 C         3.503003         1.050106         0.590293
 C         2.140632         0.773736         1.230806
 O         1.676813         1.893950         1.956784
 C         2.321483        -0.582847         1.976126
 C         2.543137        -1.122609         0.412583
 H        -0.773205        -0.685548         0.678107
 H        -0.745706         0.516000        -0.798221
 H        -0.266333        -1.184721        -0.934802
 H         4.146916        -0.497209        -1.161733
 H         4.207226         0.880278         1.389993
 H         3.583757         1.925895        -0.017150
 H         2.311839         1.976081         2.734600
 H         3.164892        -0.584861         2.802892
 H         1.352550        -0.949366         2.427961
 H         2.692271        -2.202846         0.223527
