19
Iteration:  3511
 C        -0.118441        -0.359372         0.037019
 C         1.311300        -0.131795         0.083405
 O         1.999909         0.093779        -1.208436
 C         3.279299        -0.207751        -0.514762
 C         3.471034         1.056880         0.439463
 C         2.131919         0.836295         1.171054
 O         1.528463         1.866573         1.788172
 C         2.488941        -0.508665         1.882560
 C         2.437921        -1.099857         0.511841
 H        -0.440577        -0.902060         1.035088
 H        -0.759381         0.526362        -0.293738
 H        -0.331969        -1.220379        -0.573970
 H         4.200730        -0.547271        -1.142956
 H         4.334501         0.940540         1.160582
 H         3.659981         2.100255        -0.009256
 H         1.969755         2.106289         2.601376
 H         3.559368        -0.578114         2.079699
 H         1.902119        -0.894152         2.794190
 H         2.423463        -2.141460         0.210713
