19
Iteration:  1819
 C        -0.137592        -0.335865         0.068941
 C         1.366859         0.033845         0.017594
 O         2.145348         0.306642        -1.240515
 C         3.370871        -0.179123        -0.480464
 C         3.478075         0.851569         0.598363
 C         2.043750         0.688545         1.155769
 O         1.501152         1.860224         1.909030
 C         2.377235        -0.663128         1.801574
 C         2.387429        -1.084098         0.333959
 H        -0.310212        -0.891752         1.032679
 H        -0.784972         0.573083         0.007049
 H        -0.152810        -1.080702        -0.732473
 H         4.213610        -0.579687        -1.046822
 H         4.178750         0.596244         1.462859
 H         3.685378         1.807404         0.103316
 H         2.028586         2.640682         1.934450
 H         3.335713        -0.618932         2.485240
 H         1.523309        -0.929278         2.502414
 H         2.300024        -2.140244         0.072284
