19
Iteration:  1954
 C        -0.043404        -0.260427         0.022367
 C         1.394751        -0.104177        -0.031183
 O         2.097563         0.312462        -1.231492
 C         3.278827        -0.129789        -0.542245
 C         3.511005         1.026556         0.568866
 C         2.146148         0.699084         1.200578
 O         1.529243         1.779018         1.930884
 C         2.268628        -0.717193         1.934114
 C         2.447039        -1.142899         0.413768
 H        -0.464159        -0.061802         0.989476
 H        -0.538454         0.508915        -0.639381
 H        -0.437936        -1.232072        -0.308733
 H         4.077681        -0.489512        -1.228051
 H         4.230004         0.828026         1.349088
 H         3.624740         1.952612        -0.034264
 H         1.710765         2.668584         1.526504
 H         3.157188        -1.023943         2.507020
 H         1.241313        -1.100366         2.270875
 H         2.342217        -2.184944         0.057879
