19
Iteration:   888
 C        -0.098424         0.041592         0.051963
 C         1.417738        -0.096158         0.034340
 O         2.114536         0.061206        -1.203844
 C         3.298266        -0.257764        -0.455711
 C         3.413319         1.027387         0.596271
 C         2.119431         0.769649         1.213553
 O         1.362318         1.828702         1.806886
 C         2.654346        -0.767063         1.878140
 C         2.418457        -1.112711         0.399396
 H        -0.699899        -0.008122         1.057096
 H        -0.182655         1.080336        -0.415262
 H        -0.514666        -0.593287        -0.773268
 H         4.051491        -0.703238        -0.921068
 H         4.221166         1.077113         1.289974
 H         3.405107         1.882507        -0.096231
 H         0.555905         1.777230         1.189014
 H         3.661695        -0.708559         2.368877
 H         1.988569        -1.412743         2.539700
 H         2.213663        -2.111815        -0.026526
