19
Iteration:  1214charge 0 multiplicity 1
 C        -0.091971        -0.027410         0.073758
 C         1.415384        -0.048727         0.018693
 O         2.163444         0.150272        -1.204453
 C         3.306648        -0.164164        -0.448707
 C         3.439032         1.076738         0.474339
 C         2.160823         0.687388         1.220613
 O         1.477208         1.790603         1.750370
 C         2.395768        -0.808344         1.948725
 C         2.446399        -1.160738         0.442184
 H        -0.449005        -0.050766         1.106017
 H        -0.496346         0.919136        -0.225831
 H        -0.544544        -0.797216        -0.495199
 H         4.063203        -0.801932        -0.959908
 H         4.358967         1.165780         1.096402
 H         3.400024         2.112513         0.057691
 H         0.499016         1.806308         1.507045
 H         3.216304        -1.013936         2.546653
 H         1.450000        -1.127246         2.406619
 H         2.402673        -2.144167        -0.059245
