19
Iteration:  2689charge 0 multiplicity 1
 C        -0.116847        -0.188560         0.044350
 C         1.371974        -0.157333        -0.025274
 O         2.043316         0.003161        -1.250316
 C         3.233900        -0.253062        -0.506004
 C         3.428230         1.056555         0.360997
 C         2.193142         0.832718         1.193558
 O         1.485414         1.861268         1.916974
 C         2.547596        -0.470004         1.913973
 C         2.505344        -1.137364         0.497922
 H        -0.410571        -0.886838         0.912447
 H        -0.492284         0.777996         0.269671
 H        -0.466096        -0.523959        -0.917400
 H         4.041082        -0.610718        -1.152106
 H         4.264270         1.070767         1.069450
 H         3.242531         1.890715        -0.312893
 H         1.106830         1.508158         2.739239
 H         3.314359        -0.572770         2.648088
 H         1.652444        -0.732254         2.408943
 H         2.336904        -2.166908         0.378245
