19
Iteration:  1732charge 0 multiplicity 1
 C        -0.099333         0.021829        -0.103448
 C         1.370544        -0.091384        -0.039745
 O         2.156310         0.093885        -1.241065
 C         3.321114        -0.243160        -0.368257
 C         3.460107         1.160157         0.414010
 C         2.225975         0.775364         1.212584
 O         1.357477         1.594924         1.960166
 C         2.523492        -0.650115         1.869901
 C         2.325374        -1.145951         0.457162
 H        -0.439647        -0.029233         0.969184
 H        -0.499223         0.965575        -0.487781
 H        -0.700666        -0.728201        -0.649059
 H         3.999499        -0.670998        -1.066362
 H         4.392787         1.413180         0.999600
 H         3.397303         1.943266        -0.352155
 H         1.676890         1.703608         2.875941
 H         3.532322        -0.629403         2.406470
 H         1.823026        -0.950280         2.664743
 H         2.074135        -2.189049         0.295277
