19
Iteration:  1130charge 0 multiplicity 1
 C        -0.220978        -0.311679        -0.246820
 C         1.376004        -0.053524        -0.061863
 O         2.159564         0.110212        -1.277547
 C         3.277163        -0.197070        -0.371111
 C         3.411056         1.038877         0.462470
 C         2.087896         0.798722         1.283548
 O         1.741194         1.972901         2.030048
 C         2.342118        -0.660978         1.921494
 C         2.342719        -1.164850         0.449427
 H        -0.638162        -0.831074         0.681013
 H        -0.642762         0.708811        -0.516326
 H        -0.338098        -1.043436        -1.126644
 H         4.176903        -0.438465        -0.830786
 H         4.229483         1.063471         1.176817
 H         3.298987         1.823087        -0.283735
 H         2.021601         1.959540         2.929168
 H         3.376192        -0.785931         2.455001
 H         1.506022        -1.166880         2.480892
 H         2.216369        -2.224346         0.220640
