19
Iteration:   424charge 0 multiplicity 1
 C        -0.070332        -0.155610        -0.137071
 C         1.433664        -0.000834         0.033353
 O         2.108423         0.280382        -1.189700
 C         3.392156        -0.292698        -0.389419
 C         3.515118         0.976521         0.459862
 C         2.158980         0.716207         1.198783
 O         1.501256         1.764848         1.986980
 C         2.343827        -0.665313         1.898901
 C         2.266126        -1.163945         0.450902
 H        -0.534206        -0.492914         0.852674
 H        -0.482061         0.855515        -0.559512
 H        -0.197917        -0.999035        -0.887866
 H         4.202031        -0.609375        -1.081325
 H         4.440103         0.975120         1.090014
 H         3.521256         1.886485        -0.196610
 H         1.065680         2.344680         1.368586
 H         3.238267        -0.797280         2.613108
 H         1.418486        -1.021223         2.390490
 H         2.108103        -2.056802        -0.045745
