19
Iteration:  3421charge 0 multiplicity 1
 C        -0.096244        -0.186175         0.062219
 C         1.433007        -0.167463         0.111314
 O         2.045872         0.020767        -1.221215
 C         3.267593        -0.255460        -0.527627
 C         3.445407         1.063612         0.323858
 C         2.112844         0.835197         1.100186
 O         1.468523         1.752199         1.994066
 C         2.503059        -0.418971         1.918136
 C         2.502339        -1.163141         0.486774
 H        -0.551589        -0.284455         1.032542
 H        -0.382195         0.837062        -0.323685
 H        -0.476431        -1.061437        -0.592734
 H         4.121653        -0.391798        -1.152394
 H         4.307827         1.049774         1.008817
 H         3.680099         1.915925        -0.337984
 H         0.734142         2.235517         1.535140
 H         3.440857        -0.358163         2.541775
 H         1.669188        -0.831459         2.424073
 H         2.217834        -2.198643         0.278048
