19
Iteration:  1566
 C        -0.152438         0.029986        -0.157143
 C         1.392997        -0.058171         0.035200
 O         2.111325         0.134215        -1.217192
 C         3.276027        -0.187938        -0.421629
 C         3.479965         1.075328         0.381662
 C         2.144626         0.718219         1.198442
 O         1.470740         1.618475         1.975856
 C         2.481822        -0.647523         1.943517
 C         2.504556        -1.172268         0.526030
 H        -0.709124        -0.096571         0.785120
 H        -0.434844         1.017343        -0.489924
 H        -0.497749        -0.844550        -0.811583
 H         4.118626        -0.360833        -1.036037
 H         4.329183         0.892015         1.073132
 H         3.416698         2.030295        -0.106839
 H         0.624977         1.932363         1.528997
 H         3.371926        -0.798254         2.615873
 H         1.598812        -0.934023         2.551413
 H         2.350763        -2.199838         0.156618
