19
Iteration:  1603charge 0 multiplicity 1
 C        -0.139230        -0.197105        -0.175493
 C         1.366082        -0.134097        -0.029034
 O         2.125092         0.156592        -1.269699
 C         3.276214        -0.134604        -0.428342
 C         3.366560         1.057101         0.486172
 C         2.134077         0.755010         1.247411
 O         1.552656         1.824611         2.034085
 C         2.437181        -0.666030         1.942993
 C         2.439966        -1.227610         0.436801
 H        -0.550228        -0.658938         0.795548
 H        -0.443561         0.930337        -0.182235
 H        -0.566675        -0.603122        -1.116407
 H         4.217587        -0.462294        -0.933793
 H         4.260686         0.900217         1.202388
 H         3.499142         2.078214         0.024352
 H         1.850606         2.664497         1.557225
 H         3.385742        -0.785750         2.488175
 H         1.602468        -1.124804         2.482901
 H         2.334455        -2.293664         0.162497
