19
Iteration:   920
 C        -0.095043        -0.101858         0.004926
 C         1.438006        -0.094132        -0.003889
 O         2.111722         0.236844        -1.193248
 C         3.315143        -0.249861        -0.480000
 C         3.497301         0.959753         0.438694
 C         2.180700         0.750109         1.149481
 O         1.512324         1.702207         1.904174
 C         2.347894        -0.542007         1.931488
 C         2.420352        -1.135308         0.484676
 H        -0.681673        -0.315561         0.963788
 H        -0.384326         0.836656        -0.503860
 H        -0.478479        -0.939311        -0.570349
 H         4.019199        -0.663400        -1.114750
 H         4.391694         1.060807         1.018056
 H         3.427613         1.898327        -0.133037
 H         0.615222         1.379204         1.792862
 H         3.150907        -0.473930         2.681899
 H         1.319668        -0.829567         2.318975
 H         2.399523        -2.236581         0.340993
