19
Iteration:  3007charge 0 multiplicity 1
 C        -0.207024        -0.417068        -0.029208
 C         1.412871        -0.168388        -0.043025
 O         2.026513        -0.021984        -1.273740
 C         3.228106        -0.186788        -0.476615
 C         3.436285         1.110372         0.412460
 C         2.101184         0.869691         1.189189
 O         1.723602         1.926798         2.048036
 C         2.431647        -0.487903         1.840869
 C         2.428118        -1.160700         0.541523
 H        -0.287179        -0.534726         1.010269
 H        -0.828806         0.462204        -0.394717
 H        -0.509788        -1.391009        -0.481487
 H         4.197081        -0.387698        -1.011176
 H         4.429557         1.129506         0.941244
 H         3.343594         2.024993        -0.208595
 H         1.197468         2.652597         1.657633
 H         3.329103        -0.276063         2.538429
 H         1.654904        -0.827429         2.535407
 H         2.507352        -2.264811         0.276321
