19
Iteration:  4621
 C        -0.066293        -0.365421         0.162723
 C         1.432149        -0.088537         0.097257
 O         2.048336         0.111322        -1.223535
 C         3.304442        -0.178782        -0.542933
 C         3.437504         1.076321         0.298184
 C         2.140353         0.836157         1.116483
 O         1.401031         1.785145         1.808753
 C         2.530493        -0.519839         1.987760
 C         2.405218        -1.115912         0.572836
 H        -0.606434        -0.908304         1.038374
 H        -0.630567         0.453845        -0.233328
 H        -0.158636        -0.952786        -0.726932
 H         4.026434        -0.649155        -1.264137
 H         4.412733         0.949254         0.857926
 H         3.198731         1.874219        -0.376090
 H         2.019556         2.405419         2.273961
 H         3.409113        -0.499572         2.593841
 H         1.683858        -0.871299         2.462685
 H         2.249840        -2.091704         0.174478
