19
Iteration:  2865charge 0 multiplicity 1
 C        -0.093991        -0.188453         0.177784
 C         1.425288        -0.146892         0.147581
 O         2.059241         0.104711        -1.221965
 C         3.236724        -0.199571        -0.506832
 C         3.463444         1.075662         0.360337
 C         2.138332         0.780394         1.130375
 O         1.342258         1.796978         1.700881
 C         2.571356        -0.529886         1.976036
 C         2.450591        -1.193648         0.487003
 H        -0.542869        -0.701216         1.054722
 H        -0.452200         0.855049         0.098166
 H        -0.405651        -0.734077        -0.710674
 H         4.025935        -0.623993        -1.181353
 H         4.388300         1.111368         0.913817
 H         3.630193         1.870046        -0.349724
 H         1.788319         2.063246         2.544706
 H         3.605630        -0.395585         2.329487
 H         1.912884        -1.018479         2.663544
 H         2.320040        -2.246640         0.172519
