19
Iteration:  3357charge 0 multiplicity 1
 C        -0.026221        -0.313506         0.105845
 C         1.359036        -0.237788        -0.023668
 O         1.981679         0.069224        -1.255444
 C         3.224386        -0.134633        -0.457035
 C         3.422918         1.061700         0.473721
 C         2.103156         0.805137         1.146180
 O         1.529049         1.869711         1.845974
 C         2.451048        -0.510453         1.900001
 C         2.524447        -1.176653         0.497407
 H        -0.157650        -0.314035         1.158120
 H        -0.526910         0.679704        -0.112648
 H        -0.532099        -1.027336        -0.553471
 H         4.024873        -0.444139        -1.093710
 H         4.263165         0.973424         1.171924
 H         3.417439         1.991489        -0.143737
 H         1.984123         2.719260         1.512060
 H         3.455375        -0.366983         2.410317
 H         1.816957        -1.126634         2.532931
 H         2.376005        -2.259340         0.428813
