19
Iteration:  4095
 C        -0.113003        -0.250106         0.119597
 C         1.406004        -0.204763         0.058489
 O         2.074119         0.044214        -1.225060
 C         3.296583        -0.167561        -0.482598
 C         3.368767         1.043985         0.400494
 C         2.074851         0.754699         1.142191
 O         1.496301         1.807348         1.891107
 C         2.492725        -0.446134         1.870159
 C         2.551086        -1.149101         0.488055
 H        -0.609359        -0.274721         1.079187
 H        -0.360562         0.636057        -0.423180
 H        -0.622748        -1.140819        -0.444310
 H         4.023816        -0.533638        -1.215535
 H         4.213797         1.157052         1.065114
 H         3.248117         2.034782        -0.107920
 H         1.558716         2.553838         1.286878
 H         3.299267        -0.306481         2.598137
 H         1.856278        -0.755211         2.636087
 H         2.349043        -2.197798         0.186334
