19
Iteration:  2822charge 0 multiplicity 1
 C        -0.079149        -0.407649        -0.099051
 C         1.325694        -0.186266         0.125937
 O         2.004937         0.108906        -1.272857
 C         3.218004        -0.199622        -0.520214
 C         3.346846         1.082071         0.271449
 C         2.144061         0.794652         1.223091
 O         1.692041         1.885483         1.987544
 C         2.443441        -0.523241         2.033258
 C         2.444934        -1.134652         0.549171
 H        -0.673169        -0.879700         0.711387
 H        -0.652226         0.496429        -0.354869
 H        -0.176120        -1.087712        -0.924639
 H         4.108740        -0.574193        -1.096694
 H         4.231933         1.418247         0.801130
 H         3.079057         2.057499        -0.124510
 H         2.191385         2.653872         1.681763
 H         3.418416        -0.471431         2.497292
 H         1.639568        -0.648702         2.697523
 H         2.558511        -2.202771         0.152213
