19
Iteration:  4119charge 0 multiplicity 1
 C        -0.070571        -0.271789        -0.003857
 C         1.406897        -0.144454         0.049237
 O         2.005093         0.068346        -1.236068
 C         3.260761        -0.180840        -0.425889
 C         3.381528         1.125707         0.278599
 C         2.144522         0.786157         1.248413
 O         1.447847         1.843201         1.841796
 C         2.505070        -0.578974         1.915724
 C         2.531880        -1.130226         0.584605
 H        -0.345456        -0.639709         1.036459
 H        -0.646457         0.639312        -0.267123
 H        -0.483929        -1.154029        -0.513920
 H         3.970445        -0.688185        -1.059480
 H         4.361786         1.277200         0.755052
 H         3.194905         1.991298        -0.324097
 H         2.040519         2.583118         1.734219
 H         3.347733        -0.940160         2.573230
 H         1.831807        -0.985350         2.667012
 H         2.559898        -2.155297         0.415816
