19
Iteration:  4145
 C        -0.098024        -0.341787         0.013860
 C         1.377116        -0.136211         0.176747
 O         2.001648         0.099040        -1.240791
 C         3.293312        -0.215644        -0.502049
 C         3.435080         1.089759         0.365315
 C         2.127032         0.823968         1.177376
 O         1.459699         1.826451         1.794333
 C         2.538177        -0.415798         1.928189
 C         2.465170        -1.194472         0.509292
 H        -0.416281        -0.917904         0.882205
 H        -0.723631         0.573569        -0.152148
 H        -0.348808        -1.037140        -0.728918
 H         4.103464        -0.520392        -1.200923
 H         4.250397         1.102260         1.116434
 H         3.518928         1.978172        -0.277554
 H         2.084796         2.274455         2.390233
 H         3.411845        -0.643457         2.518239
 H         1.827121        -0.841271         2.631783
 H         2.254814        -2.311879         0.405246
