19
Iteration:  3836
 C        -0.156928        -0.449378        -0.138022
 C         1.358520        -0.158850         0.147180
 O         1.946635         0.054562        -1.119723
 C         3.245639        -0.170490        -0.497413
 C         3.398037         1.178977         0.248417
 C         2.145056         0.829665         1.169898
 O         1.704918         1.994800         1.861987
 C         2.527022        -0.594156         1.952787
 C         2.496867        -1.184172         0.611624
 H        -0.895711        -0.757842         0.686230
 H        -0.581061         0.525870        -0.503793
 H        -0.242771        -1.273385        -0.817948
 H         4.105320        -0.445040        -1.138227
 H         4.245667         1.406562         0.977195
 H         3.026580         1.958101        -0.463141
 H         0.831177         1.864545         2.306517
 H         3.372734        -0.526059         2.598644
 H         1.824249        -1.034269         2.645531
 H         2.730669        -2.142942         0.374385
