19
Iteration:  4841
 C        -0.085643        -0.331333         0.111164
 C         1.395158        -0.213629         0.100379
 O         1.995504         0.108256        -1.224219
 C         3.260833        -0.180469        -0.537721
 C         3.422957         1.152805         0.420397
 C         2.161584         0.755199         1.162292
 O         1.568044         1.876440         1.748672
 C         2.507038        -0.476031         1.888540
 C         2.427646        -1.175663         0.532810
 H        -0.434310        -0.679987         1.108299
 H        -0.671411         0.637563         0.059573
 H        -0.378246        -1.272270        -0.479909
 H         4.236225        -0.490446        -1.034876
 H         4.474912         1.379059         0.784738
 H         3.161957         2.056391        -0.213699
 H         0.871962         1.540157         2.405531
 H         3.552172        -0.446745         2.353400
 H         1.667472        -0.866952         2.511138
 H         2.435043        -2.199526         0.443336
