19
Iteration:  1968
 C        -0.151486        -0.280727         0.019261
 C         1.396749        -0.023454        -0.007992
 O         2.048256         0.240025        -1.273440
 C         3.327429        -0.093224        -0.390443
 C         3.498102         0.908793         0.625474
 C         2.144100         0.724820         1.288427
 O         1.521276         1.812024         1.853842
 C         2.361573        -0.678131         1.774451
 C         2.429098        -1.104724         0.351709
 H        -0.406192        -0.292750         1.135869
 H        -0.719368         0.429782        -0.538422
 H        -0.350580        -1.361254        -0.364408
 H         4.207343        -0.302502        -1.001206
 H         4.408524         0.571469         1.194627
 H         3.565107         1.959297         0.326067
 H         2.147600         2.519137         1.776122
 H         3.084972        -0.761253         2.584306
 H         1.415257        -1.069715         2.152345
 H         2.469182        -2.180287        -0.013606
