19
Iteration:  1368
 C        -0.049228        -0.103290         0.097894
 C         1.409027        -0.020468         0.015313
 O         2.162922         0.302692        -1.218174
 C         3.306681        -0.280789        -0.428936
 C         3.490161         1.024484         0.428324
 C         2.123193         0.670272         1.170413
 O         1.377147         1.733868         1.731212
 C         2.443759        -0.651329         1.902343
 C         2.415120        -1.148501         0.516712
 H        -0.346448        -0.189180         1.132086
 H        -0.531086         0.675692        -0.418608
 H        -0.575249        -0.917977        -0.407963
 H         4.075550        -0.704951        -1.090324
 H         4.395171         1.111555         1.088193
 H         3.330540         1.936389        -0.203402
 H         1.314554         1.508696         2.642772
 H         3.275251        -0.687453         2.546646
 H         1.603176        -1.252061         2.348594
 H         2.161464        -2.164131         0.192331
