19
Iteration:  1590
 C        -0.040717        -0.071065        -0.159530
 C         1.419335        -0.201997        -0.008507
 O         2.106945         0.174131        -1.222503
 C         3.293896        -0.250614        -0.428227
 C         3.331219         1.073429         0.511326
 C         2.074706         0.709115         1.275397
 O         1.552198         1.818051         2.023795
 C         2.501832        -0.683085         1.871836
 C         2.420362        -1.186867         0.442928
 H        -0.726590        -0.420206         0.700544
 H        -0.257340         1.026856        -0.265827
 H        -0.380473        -0.731835        -1.064597
 H         4.097107        -0.409975        -1.090505
 H         4.215911         1.469541         1.166419
 H         3.005679         1.789167        -0.282306
 H         1.265280         2.481606         1.395313
 H         3.387239        -0.897868         2.534865
 H         1.625215        -0.894657         2.465364
 H         2.226158        -2.182575         0.041060
