19
Iteration:   805
 C        -0.092568        -0.428677        -0.115787
 C         1.312339        -0.023016        -0.026607
 O         2.150301         0.287142        -1.314227
 C         3.295527        -0.188467        -0.416772
 C         3.451582         0.964759         0.534717
 C         2.130699         0.746897         1.227477
 O         1.686198         1.923897         1.950506
 C         2.312048        -0.632827         1.883165
 C         2.258168        -1.116999         0.447879
 H        -0.459777        -0.834298         0.792859
 H        -0.712713         0.417076        -0.300580
 H        -0.247248        -1.261324        -0.819985
 H         4.207737        -0.894876        -0.706641
 H         4.435946         1.067736         1.057003
 H         3.258180         1.919862        -0.012745
 H         2.102390         1.935834         2.819691
 H         3.337432        -0.604422         2.258703
 H         1.604086        -1.013008         2.555124
 H         2.083048        -2.175231         0.232423
