19
Iteration:  2823
 C        -0.084843        -0.404596        -0.099026
 C         1.320507        -0.189689         0.121292
 O         2.010052         0.106390        -1.269070
 C         3.211181        -0.193901        -0.528836
 C         3.357783         1.081898         0.266600
 C         2.142651         0.800894         1.218818
 O         1.683238         1.883056         1.983138
 C         2.450790        -0.525334         2.044646
 C         2.445336        -1.131764         0.554667
 H        -0.646293        -0.861303         0.694276
 H        -0.670569         0.517614        -0.338819
 H        -0.188489        -1.086994        -0.941306
 H         4.119874        -0.552420        -1.101804
 H         4.259592         1.377358         0.822901
 H         3.080829         2.067823        -0.139987
 H         2.196271         2.634051         1.727389
 H         3.422127        -0.464778         2.506313
 H         1.672337        -0.692965         2.734708
 H         2.544027        -2.243942         0.152051
