19
Iteration:   985charge 0 multiplicity 1
 C        -0.191296        -0.405271        -0.318112
 C         1.268428        -0.099746        -0.008001
 O         2.070100         0.269163        -1.157498
 C         3.270063        -0.239948        -0.441369
 C         3.464426         0.945693         0.480111
 C         2.139840         0.797461         1.199559
 O         1.808703         1.937802         1.998596
 C         2.363635        -0.528000         1.909849
 C         2.369589        -1.141780         0.536305
 H        -0.665874        -0.949468         0.519768
 H        -0.697887         0.516010        -0.586246
 H        -0.039408        -1.066701        -1.122873
 H         4.106926        -0.550659        -1.040539
 H         4.341913         0.888451         1.117576
 H         3.484822         1.882790        -0.088076
 H         1.062274         1.569619         2.583191
 H         3.227889        -0.611465         2.537001
 H         1.515600        -0.915341         2.524154
 H         2.400069        -2.221497         0.274745
