19
Iteration:  2496
 C        -0.164890        -0.438686        -0.062183
 C         1.270908        -0.119367         0.012724
 O         2.064368         0.111227        -1.223369
 C         3.230575        -0.224345        -0.491779
 C         3.516593         1.047589         0.389618
 C         2.144869         0.834796         1.233726
 O         1.703888         1.897881         1.965927
 C         2.508381        -0.501994         1.896755
 C         2.318009        -1.050905         0.443671
 H        -0.587726        -1.043087         0.792002
 H        -0.774807         0.532421        -0.002932
 H        -0.352760        -0.889805        -1.021868
 H         4.097279        -0.401101        -1.091223
 H         4.374841         1.045523         1.020854
 H         3.555848         2.006924        -0.116396
 H         0.993953         1.571513         2.528302
 H         3.511372        -0.691454         2.401921
 H         1.792930        -0.932891         2.625615
 H         2.214727        -2.121445         0.381688
