19
Iteration:  4745
 C        -0.048573        -0.270085         0.032120
 C         1.385638        -0.260390         0.052795
 O         2.030821         0.069111        -1.238821
 C         3.216834        -0.174300        -0.462417
 C         3.383703         1.083911         0.342023
 C         2.113794         0.779765         1.186354
 O         1.470505         1.897059         1.918552
 C         2.633495        -0.515534         1.932140
 C         2.446544        -1.196207         0.502317
 H        -0.519676        -0.445389         0.939967
 H        -0.400836         0.776791        -0.118657
 H        -0.468415        -1.132369        -0.536579
 H         4.104524        -0.475453        -0.988149
 H         4.188191         1.199939         1.073738
 H         3.288810         2.108430        -0.178801
 H         1.274237         2.539419         1.200826
 H         3.596118        -0.367904         2.315032
 H         1.943194        -0.985634         2.539018
 H         2.398476        -2.268920         0.328925
