19
Iteration:  2249
 C        -0.145099        -0.069138         0.061728
 C         1.409025        -0.156394        -0.012366
 O         1.995763         0.172369        -1.281657
 C         3.421491        -0.233313        -0.487261
 C         3.454899         1.083565         0.484768
 C         2.140451         0.706829         1.206137
 O         1.508438         1.811384         1.847334
 C         2.449643        -0.655932         1.888917
 C         2.472835        -1.160709         0.485529
 H        -0.604371        -0.637282         0.815768
 H        -0.580304         0.960282         0.127265
 H        -0.590120        -0.369427        -0.883304
 H         4.283794        -0.447813        -1.091851
 H         4.268946         0.881833         1.163344
 H         3.391473         2.039397         0.030664
 H         0.980625         1.381332         2.522385
 H         3.260338        -0.671534         2.601675
 H         1.563260        -1.056426         2.410820
 H         2.529670        -2.217839         0.187069
