19
Iteration:  2033charge 0 multiplicity 1
 C        -0.111791        -0.044722        -0.115120
 C         1.378656        -0.103055         0.008466
 O         2.082371         0.057315        -1.206358
 C         3.305178        -0.127882        -0.513102
 C         3.455747         1.031968         0.432944
 C         2.176170         0.756844         1.184481
 O         1.416117         1.729844         1.939693
 C         2.487220        -0.606272         1.882118
 C         2.446627        -1.130091         0.540056
 H        -0.603160        -0.665026         0.681598
 H        -0.401021         0.909376         0.203036
 H        -0.550705        -0.242430        -1.138605
 H         4.167637        -0.403098        -1.129041
 H         4.298082         0.845317         1.109774
 H         3.660369         1.962990        -0.050698
 H         1.495583         1.517263         2.890725
 H         3.362899        -0.835241         2.499865
 H         1.610824        -1.014639         2.398934
 H         2.333226        -2.211975         0.230838
