19
Iteration:  3880charge 0 multiplicity 1
 C        -0.069468        -0.281512         0.174786
 C         1.397423        -0.100076         0.028377
 O         2.077407        -0.027204        -1.306140
 C         3.282094        -0.185506        -0.470731
 C         3.403339         1.146893         0.350667
 C         2.072640         0.763355         1.106095
 O         1.498201         1.889661         1.839190
 C         2.516794        -0.494709         1.945064
 C         2.482147        -1.127530         0.510635
 H        -0.494317        -0.272521         1.199435
 H        -0.799060         0.481490        -0.165967
 H        -0.237131        -1.224875        -0.240222
 H         4.073864        -0.549212        -1.117155
 H         4.293040         0.949169         0.986605
 H         3.427585         1.963987        -0.376659
 H         0.896391         1.505133         2.520920
 H         3.523856        -0.546349         2.378387
 H         1.790243        -0.852746         2.680739
 H         2.304762        -2.120983         0.327839
