19
Iteration:  2443charge 0 multiplicity 1
 C        -0.137859        -0.306775         0.092064
 C         1.391797        -0.102452         0.072495
 O         2.016618         0.249267        -1.164741
 C         3.242066        -0.128656        -0.501448
 C         3.440695         1.068158         0.438535
 C         2.174192         0.732035         1.162577
 O         1.703315         1.903581         1.731421
 C         2.375758        -0.700804         1.953102
 C         2.479368        -1.262709         0.469578
 H        -0.392586        -1.027530         0.822586
 H        -0.691418         0.698687        -0.013496
 H        -0.308301        -0.880981        -0.818093
 H         4.091787        -0.298487        -1.093754
 H         4.397418         1.201989         0.948297
 H         3.207157         2.062148         0.076029
 H         0.828333         1.721318         2.089302
 H         3.220742        -0.749299         2.638940
 H         1.396731        -0.747493         2.398188
 H         2.155857        -2.226729         0.111487
