19
Iteration:  2747
 C        -0.046975        -0.197946         0.188768
 C         1.405379        -0.111229         0.118748
 O         2.027355         0.184226        -1.152998
 C         3.288475        -0.180743        -0.527808
 C         3.477232         1.046272         0.301865
 C         2.140774         0.729316         1.211006
 O         1.459390         1.880503         1.768012
 C         2.499686        -0.635499         1.929206
 C         2.446803        -1.200973         0.461209
 H        -0.702453        -0.147669         0.998936
 H        -0.389748         0.506918        -0.626358
 H        -0.285490        -1.129450        -0.318974
 H         4.073043        -0.710723        -1.126373
 H         4.355248         1.159388         0.945239
 H         3.508340         2.018577        -0.267827
 H         0.514112         1.587925         1.665778
 H         3.497529        -0.714516         2.378577
 H         1.675364        -0.863375         2.583026
 H         2.437588        -2.346913         0.206817
