19
Iteration:  4729
 C        -0.159352        -0.285060         0.022714
 C         1.360199        -0.103352         0.054379
 O         1.992904         0.004935        -1.263069
 C         3.304208        -0.182210        -0.474531
 C         3.406869         1.106264         0.380409
 C         2.140463         0.809887         1.164505
 O         1.526517         1.743452         1.914808
 C         2.536768        -0.483326         1.936717
 C         2.517474        -1.069231         0.551044
 H        -0.396255        -0.347685         1.174563
 H        -0.667399         0.552434        -0.502563
 H        -0.451145        -1.159511        -0.588471
 H         4.064219        -0.630932        -1.217828
 H         4.452911         1.121648         0.911663
 H         3.448486         1.936349        -0.287843
 H         0.966979         2.257983         1.365924
 H         3.605896        -0.490861         2.375779
 H         1.802732        -0.781699         2.800389
 H         2.586553        -2.172568         0.393352
