19
Iteration:   130
 C        -0.049470        -0.225637        -0.268285
 C         1.411545        -0.072756         0.090542
 O         2.109281         0.246209        -1.132375
 C         3.251155        -0.166982        -0.509493
 C         3.385490         0.988867         0.439732
 C         2.111732         0.662829         1.279889
 O         1.708941         1.886890         1.796685
 C         2.339287        -0.630350         2.019092
 C         2.364173        -1.186598         0.548077
 H        -0.642389        -0.691053         0.494866
 H        -0.596426         0.647563        -0.604204
 H        -0.010986        -0.893114        -1.113227
 H         3.984821        -0.381051        -1.279057
 H         4.242255         0.988851         1.186493
 H         3.353768         1.976279        -0.087255
 H         0.944158         1.632697         2.360399
 H         3.175914        -0.899522         2.715326
 H         1.470988        -0.951480         2.543117
 H         2.235944        -2.203057         0.434168
