19
Iteration:   311charge 0 multiplicity 1
 C        -0.049730        -0.248117        -0.100671
 C         1.445836        -0.123698         0.008565
 O         2.077800         0.176212        -1.272967
 C         3.298770        -0.148241        -0.504004
 C         3.467257         0.918388         0.595035
 C         2.090690         0.753509         1.285317
 O         1.621128         1.932528         1.872555
 C         2.318074        -0.632347         1.875041
 C         2.381292        -1.128287         0.440065
 H        -0.561524        -0.570778         0.806312
 H        -0.440490         0.771492        -0.307109
 H        -0.495863        -0.823947        -0.940236
 H         4.248558        -0.355462        -1.001023
 H         4.202764         0.592419         1.328007
 H         3.660927         1.920795         0.252954
 H         1.043467         1.797262         2.674653
 H         3.138177        -0.762911         2.543029
 H         1.396192        -1.001427         2.371353
 H         2.211720        -2.214868        -0.047498
