19
Iteration:   794charge 0 multiplicity 1
 C        -0.171713        -0.381814        -0.142605
 C         1.360169        -0.047256        -0.022382
 O         2.120839         0.322106        -1.204759
 C         3.255453        -0.210108        -0.357142
 C         3.434903         0.987280         0.490749
 C         2.113875         0.750631         1.220066
 O         1.709134         1.874176         1.888988
 C         2.317430        -0.634831         1.918050
 C         2.362085        -1.178367         0.470670
 H        -0.552854        -0.754463         0.777115
 H        -0.784331         0.399410        -0.540424
 H        -0.207015        -1.149860        -0.938327
 H         4.147250        -0.399998        -1.125921
 H         4.323135         1.132391         1.152868
 H         3.354023         1.823911        -0.236117
 H         2.436453         2.069618         2.463986
 H         3.159876        -0.758953         2.612532
 H         1.460167        -0.988583         2.429189
 H         2.323462        -2.151286         0.003469
