19
Iteration:   877
 C        -0.072487         0.070716         0.001230
 C         1.386355        -0.098894         0.115891
 O         2.073745         0.108955        -1.218965
 C         3.362905        -0.237616        -0.397943
 C         3.357668         1.054876         0.511032
 C         2.102789         0.650448         1.343760
 O         1.438913         1.850251         1.750692
 C         2.564141        -0.740885         1.838607
 C         2.470974        -1.213902         0.421674
 H        -0.704951        -0.153130         0.968241
 H        -0.395405         1.108521        -0.316342
 H        -0.419975        -0.621845        -0.809607
 H         4.163208        -0.479881        -0.959606
 H         4.224934         1.192140         1.136820
 H         3.181452         1.953263        -0.102100
 H         0.603629         2.028381         1.253041
 H         3.645806        -0.786717         2.147953
 H         1.915034        -1.359133         2.531845
 H         2.523524        -2.269995         0.108242
