19
Iteration:  4134
 C        -0.111282        -0.370382         0.038996
 C         1.383951        -0.108877         0.121418
 O         2.033544         0.047302        -1.190136
 C         3.257962        -0.211442        -0.502166
 C         3.413658         1.120677         0.356528
 C         2.210329         0.796884         1.181045
 O         1.461330         1.817613         1.810152
 C         2.536776        -0.537115         1.980761
 C         2.424514        -1.114867         0.483339
 H        -0.659399        -0.663685         0.922063
 H        -0.565593         0.644810        -0.189905
 H        -0.149416        -0.983077        -0.810493
 H         4.160730        -0.445913        -1.092932
 H         4.370877         1.285108         0.874042
 H         3.218335         1.922946        -0.381719
 H         1.963457         2.608079         2.176093
 H         3.458159        -0.362374         2.540678
 H         1.569044        -0.787000         2.466826
 H         2.325870        -2.184632         0.129730
