19
Iteration:  2074charge 0 multiplicity 1
 C        -0.092548        -0.008378        -0.033579
 C         1.389044        -0.091737         0.034134
 O         2.154025         0.110199        -1.176950
 C         3.329058        -0.171694        -0.401679
 C         3.377195         1.112545         0.364282
 C         2.097502         0.694361         1.220035
 O         1.524542         1.743409         1.867566
 C         2.495689        -0.674431         1.864218
 C         2.395375        -1.185021         0.450779
 H        -0.514439        -0.707434         0.634445
 H        -0.566580         0.985228         0.270251
 H        -0.471088        -0.465261        -0.931697
 H         4.175851        -0.426655        -1.039230
 H         4.318039         1.197697         0.893990
 H         3.229461         2.046685        -0.171066
 H         0.870464         1.458242         2.495270
 H         3.338207        -0.830747         2.555799
 H         1.554250        -0.967990         2.443130
 H         2.326726        -2.276753         0.290031
