19
Iteration:  3107charge 0 multiplicity 1
 C        -0.042189        -0.275147         0.069168
 C         1.443186        -0.212872         0.062776
 O         2.003025         0.078575        -1.224409
 C         3.215356        -0.218427        -0.432607
 C         3.411590         1.130739         0.244181
 C         2.188471         0.828310         1.179824
 O         1.484310         1.799674         1.880799
 C         2.440778        -0.504541         1.959226
 C         2.447750        -1.158833         0.501907
 H        -0.254261        -0.694282         1.026105
 H        -0.430911         0.757565        -0.003863
 H        -0.468968        -0.941122        -0.712633
 H         4.067830        -0.674137        -0.921939
 H         4.335301         1.397873         0.751252
 H         3.168340         1.918450        -0.494978
 H         2.054991         2.538387         2.043203
 H         3.410406        -0.558204         2.497579
 H         1.579037        -0.819332         2.476142
 H         2.480625        -2.273615         0.295134
