19
Iteration:  4019charge 0 multiplicity 1
 C        -0.194678        -0.358467         0.011834
 C         1.336737        -0.282843         0.035336
 O         2.014380         0.078833        -1.263899
 C         3.272305        -0.171736        -0.510149
 C         3.445827         1.090063         0.449296
 C         2.181196         0.821544         1.242808
 O         1.567786         1.899067         1.891633
 C         2.492702        -0.475536         1.930468
 C         2.489482        -1.161222         0.477207
 H        -0.528498        -0.369679         1.010873
 H        -0.607025         0.587161        -0.164879
 H        -0.508203        -1.216856        -0.690211
 H         4.230819        -0.422778        -0.993404
 H         4.306683         1.030607         1.066393
 H         3.358853         2.034604        -0.109709
 H         1.260712         2.452524         1.100428
 H         3.481682        -0.373002         2.470886
 H         1.743383        -0.924245         2.597038
 H         2.668338        -2.210096         0.499959
