19
Iteration:  2103charge 0 multiplicity 1
 C        -0.060960        -0.270414        -0.033208
 C         1.381406        -0.113384         0.057118
 O         2.037302         0.280835        -1.234942
 C         3.310062        -0.196994        -0.529496
 C         3.475788         0.961251         0.503720
 C         2.151263         0.743857         1.253228
 O         1.555212         1.843546         1.882556
 C         2.464355        -0.641132         1.906626
 C         2.431481        -1.125880         0.441611
 H        -0.685525        -0.587316         0.887004
 H        -0.556768         0.776319        -0.254012
 H        -0.423663        -0.913417        -0.837396
 H         4.034737        -0.441449        -1.317432
 H         4.399669         0.773443         1.175050
 H         3.559962         2.026353         0.101186
 H         0.586949         1.880080         1.833187
 H         3.190072        -0.896575         2.685178
 H         1.483882        -0.953730         2.278688
 H         2.106182        -2.155399         0.363655
