19
Iteration:  2615
 C        -0.161615        -0.424093        -0.011070
 C         1.369967        -0.152259         0.092098
 O         1.968599         0.105651        -1.189342
 C         3.256831        -0.118707        -0.598239
 C         3.406027         1.061791         0.478224
 C         2.172657         0.795167         1.242562
 O         1.751387         1.943970         1.827736
 C         2.451173        -0.548123         1.950687
 C         2.437777        -1.136634         0.429974
 H        -0.536956        -0.549753         0.992633
 H        -0.622010         0.510586        -0.346637
 H        -0.372529        -1.175540        -0.723282
 H         4.060625        -0.550049        -1.192342
 H         4.244221         0.789118         1.151625
 H         3.529536         2.100791         0.182748
 H         0.755724         2.022596         1.845349
 H         3.255868        -0.734202         2.707971
 H         1.549690        -0.943335         2.449162
 H         2.436337        -2.203204         0.177295
