19
Iteration:  3489charge 0 multiplicity 1
 C        -0.116439        -0.431749        -0.010328
 C         1.345238        -0.092779         0.024821
 O         1.942515         0.214047        -1.236887
 C         3.241838        -0.190512        -0.492826
 C         3.469749         0.976853         0.348757
 C         2.173248         0.851722         1.253700
 O         1.511990         1.884292         1.821563
 C         2.531681        -0.543794         2.023100
 C         2.523479        -1.193649         0.525379
 H        -0.560324        -0.796230         1.024755
 H        -0.673449         0.476740        -0.459541
 H        -0.263140        -1.316671        -0.612145
 H         3.966128        -0.569175        -1.310287
 H         4.451754         0.928845         0.889344
 H         3.685080         1.927108        -0.252466
 H         2.068235         2.654661         2.152736
 H         3.233112        -0.550106         2.861524
 H         1.479514        -0.812870         2.399419
 H         2.315746        -2.244510         0.350896
