19
Iteration:  4785
 C        -0.092570        -0.325771         0.090879
 C         1.384721        -0.189549         0.121266
 O         1.967494         0.084625        -1.242883
 C         3.223267        -0.121223        -0.535951
 C         3.452078         1.132504         0.388343
 C         2.187148         0.789195         1.147343
 O         1.478728         1.756138         1.736469
 C         2.495357        -0.495097         1.978817
 C         2.497448        -1.120863         0.546770
 H        -0.253385        -0.906816         1.088764
 H        -0.569530         0.695187         0.160445
 H        -0.468009        -0.934135        -0.780983
 H         4.157689        -0.471674        -1.177285
 H         4.373818         0.857080         1.023601
 H         3.413188         1.967551        -0.311556
 H         1.950160         2.509990         2.149841
 H         3.405913        -0.581818         2.697706
 H         1.548865        -0.707025         2.609309
 H         2.529773        -2.134604         0.257360
