19
Iteration:  4371charge 0 multiplicity 1
 C        -0.155424        -0.318418         0.169506
 C         1.376286        -0.116850         0.068286
 O         1.983836         0.011476        -1.202350
 C         3.324035        -0.157436        -0.486086
 C         3.470644         1.074219         0.320518
 C         2.102764         0.777654         1.133079
 O         1.374549         1.838103         1.709523
 C         2.619633        -0.498193         1.951144
 C         2.543063        -1.093746         0.541595
 H        -0.726242        -0.704597         1.059883
 H        -0.609886         0.678023         0.190526
 H        -0.397025        -0.817972        -0.720729
 H         4.068139        -0.503131        -1.204165
 H         4.410088         1.124731         0.928409
 H         3.415493         2.058442        -0.009631
 H         1.791904         2.073085         2.586970
 H         3.657969        -0.604804         2.430199
 H         1.870594        -1.106368         2.496524
 H         2.410320        -2.020177         0.213345
