19
Iteration:  4212charge 0 multiplicity 1
 C        -0.125008        -0.274020         0.146870
 C         1.423835        -0.210338         0.018356
 O         2.012533         0.098092        -1.229236
 C         3.286273        -0.207192        -0.457626
 C         3.391761         1.060540         0.340292
 C         2.163065         0.733252         1.188190
 O         1.505555         1.917613         1.786270
 C         2.501004        -0.526595         1.935116
 C         2.564634        -1.108253         0.493082
 H        -0.418997        -0.579919         1.121313
 H        -0.549317         0.722776        -0.042964
 H        -0.513523        -1.071494        -0.521998
 H         4.175061        -0.581998        -1.023160
 H         4.305855         1.193206         0.911544
 H         3.272083         1.998576        -0.305168
 H         0.543887         1.775403         2.024254
 H         3.328180        -0.496367         2.573134
 H         1.762163        -0.813614         2.639186
 H         2.349836        -2.225051         0.206042
