19
Iteration:  3052
 C        -0.108765        -0.185499         0.182380
 C         1.440440        -0.163348         0.075779
 O         1.964008         0.158836        -1.217920
 C         3.256547        -0.199083        -0.515966
 C         3.507358         1.002905         0.436656
 C         2.197844         0.807131         1.145737
 O         1.322629         1.774201         1.708836
 C         2.587194        -0.530520         1.929304
 C         2.503081        -1.204971         0.535014
 H        -0.386329        -0.435610         1.149493
 H        -0.413849         0.866392        -0.080495
 H        -0.531592        -0.931060        -0.550276
 H         4.033435        -0.438956        -1.254025
 H         4.331973         1.037871         1.139077
 H         3.479012         1.870100        -0.253747
 H         1.561288         2.581883         1.236926
 H         3.501093        -0.743771         2.559457
 H         1.865281        -0.928457         2.604451
 H         2.366154        -2.350341         0.595811
