19
Iteration:   421
 C        -0.066464        -0.138438        -0.128005
 C         1.469395         0.000974         0.002841
 O         2.112631         0.275299        -1.191377
 C         3.363208        -0.295479        -0.391558
 C         3.485283         1.013235         0.472529
 C         2.130531         0.702832         1.198558
 O         1.522567         1.754839         1.978443
 C         2.341495        -0.661330         1.907158
 C         2.284757        -1.186545         0.447239
 H        -0.519713        -0.385741         0.825794
 H        -0.407003         0.821521        -0.458855
 H        -0.274392        -0.942586        -0.818455
 H         4.188436        -0.606264        -0.991279
 H         4.344180         1.089699         1.131934
 H         3.522396         1.895335        -0.161300
 H         1.119768         2.368904         1.341723
 H         3.210361        -0.871856         2.491354
 H         1.428119        -1.010571         2.359267
 H         2.135895        -2.282962         0.063794
