19
Iteration:  2559
 C        -0.138957        -0.036526         0.171390
 C         1.388224        -0.091950        -0.032184
 O         2.016122         0.028365        -1.272427
 C         3.274304        -0.145756        -0.455140
 C         3.454133         1.057130         0.478699
 C         2.150836         0.813304         1.173905
 O         1.444648         1.743365         1.782916
 C         2.604795        -0.575454         1.907318
 C         2.456568        -1.223716         0.462638
 H        -0.576490         0.099767         1.209449
 H        -0.448770         0.689917        -0.487334
 H        -0.563708        -0.965320        -0.126032
 H         4.095824        -0.576569        -1.057079
 H         4.424957         1.006225         1.045890
 H         3.500291         1.923197        -0.225342
 H         0.747383         1.522821         2.358974
 H         3.633943        -0.520177         2.315353
 H         1.873698        -1.075073         2.528127
 H         2.664566        -2.238561         0.254406
