19
Iteration:  4827charge 0 multiplicity 1
 C        -0.115734        -0.384078         0.190972
 C         1.374296        -0.068135         0.026787
 O         2.068122         0.124566        -1.238037
 C         3.267686        -0.191834        -0.432616
 C         3.385675         1.071636         0.291135
 C         2.134149         0.796603         1.179004
 O         1.495319         1.874525         1.721678
 C         2.570097        -0.546258         1.945376
 C         2.459094        -1.119847         0.509778
 H        -0.258220        -0.808810         1.237129
 H        -0.710551         0.464504        -0.041893
 H        -0.479499        -0.961664        -0.621869
 H         4.040195        -0.582929        -1.204916
 H         4.177222         1.126327         1.086393
 H         3.369317         1.932590        -0.315298
 H         1.284871         1.607960         2.597175
 H         3.545064        -0.610783         2.553869
 H         1.770042        -0.882398         2.706847
 H         2.349566        -2.180252         0.199738
