19
Iteration:   911charge 0 multiplicity 1
 C        -0.096070        -0.010781         0.021407
 C         1.412931        -0.085776        -0.034300
 O         2.105983         0.204058        -1.223521
 C         3.338959        -0.193956        -0.469008
 C         3.522271         0.987530         0.419336
 C         2.161434         0.706877         1.222325
 O         1.419841         1.706206         1.873398
 C         2.414525        -0.542757         1.904364
 C         2.390871        -1.226621         0.522713
 H        -0.499203        -0.151896         1.103858
 H        -0.560487         0.902778        -0.434217
 H        -0.352144        -0.892461        -0.629504
 H         4.112643        -0.565220        -1.010556
 H         4.352453         0.817550         1.100445
 H         3.704566         1.855189        -0.225620
 H         0.501608         1.527132         1.666806
 H         3.397211        -0.713379         2.468823
 H         1.645767        -0.879449         2.627816
 H         2.552655        -2.296453         0.363406
