19
Iteration:  1261
 C        -0.131196        -0.121687        -0.064939
 C         1.368055        -0.080574         0.018035
 O         2.152085         0.138767        -1.252538
 C         3.285078        -0.208570        -0.459453
 C         3.481298         0.970194         0.473202
 C         2.132422         0.748123         1.226571
 O         1.428506         1.694693         1.932627
 C         2.475124        -0.583568         1.893918
 C         2.389031        -1.083567         0.475962
 H        -0.542446        -0.473203         0.941571
 H        -0.605259         0.913635        -0.086559
 H        -0.458686        -0.890033        -0.871770
 H         4.163117        -0.372452        -0.998942
 H         4.369975         0.981117         1.169321
 H         3.760740         1.882536        -0.099041
 H         1.568631         2.554334         1.509891
 H         3.490374        -0.658756         2.408462
 H         1.654340        -1.011240         2.495749
 H         2.314082        -2.172542         0.363535
