19
Iteration:  2777
 C        -0.172555        -0.456639         0.097793
 C         1.338582        -0.136224        -0.018781
 O         2.019339         0.128763        -1.361027
 C         3.256796        -0.177252        -0.529178
 C         3.471830         0.996354         0.463662
 C         2.191284         0.807976         1.230772
 O         1.657065         1.900977         1.991224
 C         2.465613        -0.419329         1.909675
 C         2.418915        -1.111702         0.462589
 H        -0.822844        -0.401605         1.057775
 H        -0.624650         0.230850        -0.592888
 H        -0.344748        -1.382488        -0.410585
 H         4.128933        -0.614781        -1.043615
 H         4.370340         0.862394         1.089037
 H         3.634738         1.947906        -0.052160
 H         0.792223         2.021056         1.546226
 H         3.375201        -0.474685         2.492953
 H         1.660225        -0.710497         2.525172
 H         2.374277        -2.205893         0.377880
