19
Iteration:  2534charge 0 multiplicity 1
 C        -0.120336        -0.102524         0.005843
 C         1.416394        -0.217898         0.104741
 O         2.017385         0.069589        -1.153612
 C         3.278930        -0.133834        -0.575058
 C         3.339137         1.045581         0.370199
 C         2.117381         0.725241         1.233875
 O         1.555635         1.859469         1.837978
 C         2.516034        -0.585607         1.914156
 C         2.552194        -1.182442         0.498018
 H        -0.716212        -0.098813         0.929892
 H        -0.089319         0.865494        -0.467977
 H        -0.654957        -0.796866        -0.686271
 H         4.034583        -0.479015        -1.311455
 H         4.330581         1.187279         0.888628
 H         3.076780         1.926863        -0.283887
 H         1.185581         1.695692         2.705628
 H         3.403446        -0.568380         2.507160
 H         1.659241        -1.124207         2.308993
 H         2.414635        -2.277805         0.310908
