19
Iteration:  2998charge 0 multiplicity 1
 C        -0.192333        -0.429843        -0.065536
 C         1.285791        -0.188480        -0.085750
 O         2.066238        -0.037301        -1.264711
 C         3.239718        -0.127331        -0.504175
 C         3.367004         1.090365         0.380225
 C         2.111089         0.828424         1.204471
 O         1.786856         1.950847         2.086613
 C         2.437653        -0.436807         1.960601
 C         2.465328        -1.127951         0.513423
 H        -0.526999        -0.520256         0.937519
 H        -0.836514         0.369314        -0.541222
 H        -0.422928        -1.395141        -0.618430
 H         4.017137        -0.573367        -1.165240
 H         4.203132         0.910134         1.023017
 H         3.364160         2.086202        -0.048146
 H         1.289015         2.514697         1.448243
 H         3.436050        -0.368539         2.487825
 H         1.726578        -0.873827         2.631833
 H         2.542472        -2.286051         0.332778
