19
Iteration:  1935
 C        -0.061665        -0.147797        -0.068384
 C         1.408922        -0.048366         0.031160
 O         2.112715         0.316153        -1.173038
 C         3.350402        -0.198889        -0.465466
 C         3.461497         0.981663         0.405069
 C         2.112527         0.723558         1.268872
 O         1.509834         1.691824         2.017095
 C         2.365349        -0.634824         1.855136
 C         2.408154        -1.240970         0.400470
 H        -0.592499         0.100744         0.895658
 H        -0.369086         0.623235        -0.767943
 H        -0.398681        -1.177413        -0.478047
 H         4.241610        -0.427177        -1.071739
 H         4.480808         1.085731         0.822369
 H         3.291989         1.909255        -0.184484
 H         0.973020         2.218863         1.399449
 H         3.148011        -0.616783         2.619975
 H         1.441516        -0.919283         2.356092
 H         2.291454        -2.359516         0.263981
