19
Iteration:   792
 C        -0.178651        -0.371758        -0.155910
 C         1.370363        -0.053354        -0.015581
 O         2.112522         0.315943        -1.180142
 C         3.262678        -0.220944        -0.371017
 C         3.434802         1.002838         0.481188
 C         2.107349         0.752323         1.227092
 O         1.703957         1.867798         1.882076
 C         2.322300        -0.637156         1.924244
 C         2.380794        -1.176572         0.454650
 H        -0.544779        -0.719396         0.809277
 H        -0.783651         0.414477        -0.549543
 H        -0.191378        -1.120432        -0.939743
 H         4.030257        -0.358315        -1.105262
 H         4.263646         1.082637         1.179218
 H         3.397267         1.841488        -0.223954
 H         2.490755         2.114197         2.423584
 H         3.144475        -0.813997         2.663238
 H         1.402962        -0.951595         2.403705
 H         2.337896        -2.185058         0.046952
