19
Iteration:  1833charge 0 multiplicity 1
 C        -0.065902        -0.263775         0.038110
 C         1.401727        -0.029902        -0.047988
 O         2.110876         0.250244        -1.361303
 C         3.255705        -0.192792        -0.420375
 C         3.519362         0.941443         0.593668
 C         2.092234         0.824119         1.234688
 O         1.465433         1.803444         1.972221
 C         2.353779        -0.664623         1.859138
 C         2.438392        -1.177288         0.390593
 H        -0.355107        -0.842925         0.923764
 H        -0.711688         0.727478         0.068517
 H        -0.487791        -0.820796        -0.781885
 H         4.150787        -0.406359        -1.052108
 H         4.350572         0.673562         1.275963
 H         3.794118         1.915807         0.083868
 H         1.935442         2.625553         1.657188
 H         3.359614        -0.705724         2.348137
 H         1.565134        -1.323610         2.375494
 H         2.235568        -2.164390         0.023892
