19
Iteration:   222charge 0 multiplicity 1
 C        -0.124326        -0.046652        -0.141993
 C         1.385408        -0.150167         0.101105
 O         2.036981         0.210159        -1.131378
 C         3.319178        -0.179014        -0.494992
 C         3.565284         1.032689         0.471702
 C         2.165404         0.728051         1.218995
 O         1.487509         1.786670         1.834095
 C         2.410699        -0.615622         1.960297
 C         2.463807        -1.272096         0.457953
 H        -0.746947        -0.078417         0.743930
 H        -0.226620         0.972993        -0.513825
 H        -0.386161        -0.647195        -1.005776
 H         3.975446        -0.678922        -1.239559
 H         4.395861         1.027705         1.151435
 H         3.570983         1.920050        -0.149250
 H         0.593902         1.484521         2.087547
 H         3.213261        -0.749104         2.619604
 H         1.565955        -0.962670         2.542066
 H         2.437556        -2.422854         0.120445
