19
Iteration:  1533
 C        -0.016772        -0.064803         0.007068
 C         1.431760        -0.019447        -0.017388
 O         2.117961         0.199263        -1.242074
 C         3.287990        -0.229947        -0.435805
 C         3.507715         0.976007         0.469125
 C         2.069262         0.754428         1.202296
 O         1.383422         1.732708         1.973698
 C         2.442795        -0.659831         1.841596
 C         2.460268        -1.186191         0.459230
 H        -0.346734        -0.005312         1.056410
 H        -0.542604         0.690924        -0.598437
 H        -0.503193        -1.040723        -0.417138
 H         4.133757        -0.450411        -1.064273
 H         4.399444         0.666554         1.121421
 H         3.775430         1.950666         0.042233
 H         0.582418         2.086508         1.501284
 H         3.451842        -0.702503         2.318162
 H         1.625217        -1.015755         2.497051
 H         2.213480        -2.154511         0.000447
