19
Iteration:  2437
 C        -0.153205        -0.261226         0.079176
 C         1.374304        -0.100370         0.057686
 O         1.994592         0.252976        -1.200907
 C         3.250130        -0.179334        -0.458944
 C         3.462698         1.099876         0.479128
 C         2.212191         0.708547         1.162939
 O         1.632695         1.908276         1.715331
 C         2.458153        -0.714585         1.928995
 C         2.480175        -1.226112         0.495568
 H        -0.445292        -0.880202         0.992077
 H        -0.575926         0.709910        -0.002232
 H        -0.458865        -0.855200        -0.828158
 H         4.094278        -0.251481        -1.235887
 H         4.401994         1.080506         1.095647
 H         3.245402         1.991014        -0.179879
 H         0.823849         1.741268         2.199427
 H         3.262214        -0.891149         2.666371
 H         1.424566        -1.043624         2.289075
 H         2.192896        -2.314465         0.305634
