19
Iteration:   487
 C        -0.126201        -0.168432        -0.118110
 C         1.348800        -0.058310        -0.003448
 O         2.194782         0.212539        -1.224234
 C         3.338320        -0.206579        -0.404382
 C         3.381428         1.052472         0.499960
 C         2.121438         0.744756         1.266285
 O         1.638112         1.841506         1.967217
 C         2.296235        -0.810554         1.849431
 C         2.403447        -1.168277         0.448208
 H        -0.602013        -0.607032         0.738420
 H        -0.632429         0.728931        -0.233877
 H        -0.375788        -0.810224        -0.925155
 H         4.129659        -0.606504        -1.011727
 H         4.224720         1.204391         1.159269
 H         3.242947         2.025031         0.028787
 H         2.055085         2.579528         1.462407
 H         2.913191        -0.857262         2.699443
 H         1.310825        -1.151113         2.074688
 H         2.260052        -2.211910         0.143732
