19
Iteration:  4977
 C        -0.142622        -0.391511         0.202594
 C         1.388154        -0.070537         0.087420
 O         2.005879         0.179183        -1.186594
 C         3.265597        -0.269755        -0.522269
 C         3.410085         1.062811         0.303884
 C         2.202499         0.741894         1.205796
 O         1.441030         1.887559         1.661797
 C         2.595536        -0.488334         1.914734
 C         2.529751        -1.149556         0.519487
 H        -0.386765        -0.855212         1.256588
 H        -0.600644         0.656676         0.142642
 H        -0.509137        -1.059174        -0.576191
 H         4.087562        -0.342105        -1.235860
 H         4.151300         1.170841         1.154587
 H         3.033552         1.891549        -0.362500
 H         1.206687         1.813053         2.555762
 H         3.454479        -0.464455         2.495542
 H         1.811754        -0.972953         2.445577
 H         2.618719        -2.340971         0.440552
