19
Iteration:  1331charge 0 multiplicity 1
 C        -0.155446        -0.352880        -0.160207
 C         1.367055        -0.069618         0.033349
 O         2.027412         0.136842        -1.237022
 C         3.248364        -0.116288        -0.437093
 C         3.538440         0.997236         0.545208
 C         2.086548         0.814242         1.206135
 O         1.605753         1.890895         1.892597
 C         2.387098        -0.640434         1.876121
 C         2.434241        -1.078007         0.468700
 H        -0.588467        -0.422737         0.872474
 H        -0.547014         0.597278        -0.672383
 H        -0.240070        -1.263598        -0.739622
 H         4.068189        -0.531873        -1.146397
 H         4.347679         0.785090         1.222045
 H         3.798938         1.975057         0.138582
 H         1.966540         1.843547         2.805108
 H         3.253969        -0.817401         2.612043
 H         1.533578        -1.293603         2.196738
 H         2.401279        -2.176230         0.303139
