19
Iteration:  3898charge 0 multiplicity 1
 C        -0.092040        -0.295324         0.218552
 C         1.398527        -0.187118         0.107164
 O         2.055671         0.126970        -1.202887
 C         3.323155        -0.227919        -0.460028
 C         3.433076         1.076631         0.323714
 C         2.216021         0.850582         1.163811
 O         1.404339         1.857063         1.700286
 C         2.474189        -0.536008         1.858486
 C         2.483183        -1.152476         0.496271
 H        -0.225336        -0.155799         1.276490
 H        -0.532976         0.656009        -0.090027
 H        -0.634486        -1.233406        -0.283651
 H         4.183480        -0.681886        -1.039360
 H         4.298581         1.391280         0.841302
 H         3.105000         1.912462        -0.373503
 H         1.169864         1.507125         2.578781
 H         3.416007        -0.552388         2.549512
 H         1.534686        -0.881858         2.304897
 H         2.498307        -2.263869         0.243746
