19
Iteration:  4992
 C        -0.004717        -0.338133         0.168464
 C         1.432626        -0.145230         0.132699
 O         1.965057         0.128004        -1.227617
 C         3.209017        -0.193983        -0.516291
 C         3.403914         1.035714         0.315016
 C         2.110315         0.802467         1.151514
 O         1.449185         1.910278         1.744934
 C         2.593647        -0.494792         1.945129
 C         2.508812        -1.131683         0.527337
 H        -0.205952        -0.992650         1.035969
 H        -0.671909         0.487421         0.085557
 H        -0.358298        -0.911214        -0.714362
 H         3.970674        -0.747091        -1.209413
 H         4.511269         1.075079         0.732815
 H         3.371344         1.864819        -0.331952
 H         0.882762         1.492191         2.466944
 H         3.620958        -0.436872         2.418709
 H         1.854568        -0.924166         2.663731
 H         2.355620        -2.142325         0.354600
