19
Iteration:  3482charge 0 multiplicity 1
 C        -0.075201        -0.388036        -0.020196
 C         1.366417        -0.082696         0.083290
 O         1.903641         0.221347        -1.175277
 C         3.258217        -0.287252        -0.503439
 C         3.458839         1.030386         0.326474
 C         2.173537         0.821666         1.220782
 O         1.527505         1.880018         1.834016
 C         2.434716        -0.549822         1.966911
 C         2.572092        -1.144735         0.532347
 H        -0.432010        -0.710838         0.962300
 H        -0.740583         0.293458        -0.485096
 H        -0.178962        -1.299198        -0.625188
 H         4.102721        -0.519814        -1.149020
 H         4.294533         0.884901         1.016001
 H         3.456672         1.848190        -0.370851
 H         2.077334         2.714195         1.886978
 H         3.233608        -0.676555         2.708906
 H         1.544079        -0.961245         2.487526
 H         2.479842        -2.202386         0.228672
