19
Iteration:  1160
 C        -0.145066        -0.307772        -0.257994
 C         1.392538        -0.053069         0.009037
 O         2.012162         0.198261        -1.243065
 C         3.273665        -0.167500        -0.476447
 C         3.515304         0.966280         0.425531
 C         2.204744         0.775553         1.252723
 O         1.674449         1.843866         1.966044
 C         2.261809        -0.555245         1.994464
 C         2.419795        -1.166496         0.546976
 H        -0.717313        -0.659484         0.651862
 H        -0.470238         0.626646        -0.758997
 H        -0.169105        -0.994875        -1.111383
 H         4.077919        -0.456954        -1.187616
 H         4.361206         1.092645         1.135992
 H         3.604163         1.874001        -0.255474
 H         1.587930         1.644989         2.948044
 H         3.036504        -0.812733         2.704322
 H         1.240906        -0.840994         2.427974
 H         2.397816        -2.261370         0.418969
