19
Iteration:   894charge 0 multiplicity 1
 C        -0.099613         0.033015         0.008691
 C         1.425992        -0.080876         0.049144
 O         2.125551         0.087516        -1.237933
 C         3.252600        -0.236818        -0.433277
 C         3.483823         1.014746         0.554977
 C         2.108738         0.791199         1.159762
 O         1.340281         1.793683         1.831973
 C         2.640981        -0.759823         1.911714
 C         2.410787        -1.153605         0.440921
 H        -0.496193        -0.097894         0.968820
 H        -0.194240         1.064530        -0.299487
 H        -0.731901        -0.692428        -0.522922
 H         4.178612        -0.664723        -1.102861
 H         4.374589         1.020352         1.247032
 H         3.575794         1.990702         0.041533
 H         0.495921         1.765011         1.349058
 H         3.624123        -0.686628         2.335279
 H         1.906049        -1.167764         2.587380
 H         2.140528        -2.148103         0.061434
