19
Iteration:  2013
 C        -0.100481        -0.138944        -0.052501
 C         1.407440        -0.048542         0.081843
 O         2.066176         0.262775        -1.206294
 C         3.270581        -0.234422        -0.453387
 C         3.523484         1.076705         0.437218
 C         2.170169         0.664636         1.244869
 O         1.462239         1.751683         1.850506
 C         2.407014        -0.619585         1.938346
 C         2.424630        -1.203293         0.384059
 H        -0.594273        -0.855726         0.720622
 H        -0.602621         0.810431        -0.257289
 H        -0.011321        -0.691498        -1.072325
 H         4.059261        -0.737894        -1.029133
 H         4.469023         1.245652         1.044020
 H         3.289727         1.936678        -0.195853
 H         1.676074         1.784603         2.765601
 H         3.274460        -0.709226         2.611124
 H         1.519234        -0.907780         2.457730
 H         2.235833        -2.281423         0.152847
