19
Iteration:  2360
 C        -0.107944        -0.068542        -0.081395
 C         1.375271        -0.124538         0.069551
 O         2.078200         0.051479        -1.261592
 C         3.332635        -0.228586        -0.526359
 C         3.308556         1.142031         0.375383
 C         2.135902         0.755288         1.197239
 O         1.623951         1.826639         2.011895
 C         2.463751        -0.656187         1.874531
 C         2.434333        -1.193697         0.499524
 H        -0.544914         0.117667         0.889802
 H        -0.362091         0.765507        -0.700130
 H        -0.437337        -1.027388        -0.557720
 H         4.258807        -0.475755        -1.114248
 H         4.086632         1.413642         1.082984
 H         2.991568         1.949316        -0.305130
 H         1.179366         1.612366         2.878954
 H         3.293674        -0.828278         2.556885
 H         1.634271        -1.003116         2.501451
 H         2.368201        -2.305700         0.329708
