19
Iteration:  2571charge 0 multiplicity 1
 C        -0.116953        -0.107852         0.191084
 C         1.407631        -0.101490         0.083655
 O         2.126659         0.115128        -1.256994
 C         3.274225        -0.247735        -0.515141
 C         3.469588         1.020210         0.396939
 C         2.155879         0.721553         1.178941
 O         1.409164         1.792982         1.821008
 C         2.551381        -0.536983         1.825197
 C         2.417221        -1.141763         0.480364
 H        -0.354616         0.200872         1.230744
 H        -0.616136         0.634509        -0.412859
 H        -0.557078        -1.061647        -0.015263
 H         4.123666        -0.464120        -1.163004
 H         4.362176         1.027018         1.047025
 H         3.353842         1.936849        -0.194468
 H         0.607109         1.244537         2.068182
 H         3.573377        -0.520803         2.282572
 H         1.868971        -0.863490         2.622586
 H         2.167611        -2.155245         0.282834
