19
Iteration:  2642charge 0 multiplicity 1
 C        -0.151129        -0.466639        -0.128141
 C         1.325482        -0.117073         0.028614
 O         1.951761         0.149421        -1.203209
 C         3.222154        -0.233736        -0.486478
 C         3.401878         1.025154         0.446132
 C         2.137315         0.843182         1.279603
 O         1.774100         2.042287         1.875788
 C         2.454305        -0.510981         1.864701
 C         2.466691        -1.176588         0.493837
 H        -0.325850        -1.102493         0.797375
 H        -0.870862         0.418891         0.028803
 H        -0.362214        -0.979607        -1.138506
 H         4.088628        -0.691760        -1.006320
 H         4.319278         0.852081         1.066686
 H         3.268863         1.943845        -0.174903
 H         1.149602         1.819870         2.634584
 H         3.425012        -0.545479         2.423443
 H         1.780412        -1.062641         2.587053
 H         2.641464        -2.284787         0.508093
