19
Iteration:  1664
 C        -0.139146        -0.316702        -0.014981
 C         1.401589         0.042343         0.059525
 O         2.081602         0.307344        -1.198793
 C         3.337016        -0.227473        -0.452199
 C         3.486931         0.977525         0.583053
 C         2.116196         0.698389         1.208579
 O         1.517818         1.870421         1.730623
 C         2.408620        -0.754865         1.907371
 C         2.406925        -1.115387         0.391723
 H        -0.365014        -0.629076         1.004517
 H        -0.710811         0.547198        -0.238819
 H        -0.463263        -1.035252        -0.829486
 H         4.173460        -0.557061        -1.058427
 H         4.363144         1.115564         1.222572
 H         3.461243         1.930611         0.048510
 H         1.793743         2.028695         2.690192
 H         3.318713        -0.763327         2.632836
 H         1.551389        -1.276055         2.363860
 H         2.075084        -2.063177        -0.077409
