19
Iteration:  3469
 C        -0.037276        -0.401548         0.035819
 C         1.410280        -0.106155         0.147731
 O         2.008541         0.144678        -1.137431
 C         3.248498        -0.162694        -0.489254
 C         3.424059         1.033864         0.371153
 C         2.115295         0.740718         1.152637
 O         1.561713         1.882748         1.854010
 C         2.426562        -0.547555         1.863306
 C         2.429627        -1.129833         0.492763
 H        -0.638419        -0.530740         1.020632
 H        -0.408129         0.551415        -0.397060
 H        -0.105788        -1.222396        -0.613075
 H         3.929580        -0.715938        -1.208047
 H         4.336909         1.319002         0.901903
 H         3.237070         1.984177        -0.182949
 H         2.062041         2.562471         1.412043
 H         3.339669        -0.543332         2.408527
 H         1.485183        -0.976129         2.365638
 H         2.435476        -2.209310         0.415993
