19
Iteration:  4548
 C        -0.074770        -0.280039         0.110438
 C         1.375348        -0.257224         0.113265
 O         1.953887         0.069638        -1.230510
 C         3.245416        -0.177118        -0.408381
 C         3.400096         1.167466         0.312541
 C         2.233715         0.763768         1.190194
 O         1.490364         1.902990         1.766703
 C         2.569522        -0.479084         1.891486
 C         2.516150        -1.155859         0.506188
 H        -0.462245        -0.830968         0.943887
 H        -0.464240         0.772825        -0.108754
 H        -0.443350        -0.793299        -0.840836
 H         4.178892        -0.546606        -1.025699
 H         4.296950         1.175465         0.995130
 H         3.152619         1.966270        -0.477833
 H         0.892650         1.379767         2.403866
 H         3.486120        -0.815617         2.550819
 H         1.574296        -0.845738         2.461199
 H         2.501643        -2.221395         0.398125
