19
Iteration:   570
 C        -0.037221         0.003018        -0.073900
 C         1.438758        -0.061038         0.081256
 O         2.092697         0.190366        -1.188239
 C         3.309958        -0.237928        -0.462094
 C         3.389764         0.979946         0.500400
 C         2.163971         0.761928         1.220321
 O         1.484947         1.801189         1.824475
 C         2.472213        -0.741830         1.900511
 C         2.387675        -1.202301         0.447946
 H        -0.587090        -0.063354         0.897717
 H        -0.125660         0.985565        -0.648030
 H        -0.348055        -0.813310        -0.789948
 H         4.063370        -0.351905        -1.199986
 H         4.172877         1.032118         1.270229
 H         3.291439         1.923929        -0.028927
 H         0.661378         1.390170         2.224591
 H         3.381033        -0.854420         2.532317
 H         1.568428        -1.080125         2.507791
 H         2.190739        -2.273731         0.153115
