19
Iteration:  4828charge 0 multiplicity 1
 C        -0.116647        -0.382845         0.192713
 C         1.372808        -0.075188         0.025983
 O         2.066958         0.125154        -1.237607
 C         3.268982        -0.187309        -0.432536
 C         3.383388         1.077694         0.295401
 C         2.150416         0.790731         1.170405
 O         1.499669         1.872726         1.721856
 C         2.565942        -0.541181         1.945124
 C         2.450878        -1.125677         0.511332
 H        -0.264758        -0.806393         1.235657
 H        -0.705425         0.489804        -0.054107
 H        -0.469367        -0.990520        -0.642888
 H         4.047444        -0.572077        -1.214016
 H         4.188718         1.112089         1.097014
 H         3.316249         1.953685        -0.306958
 H         1.248098         1.612157         2.602103
 H         3.555264        -0.599520         2.556066
 H         1.770674        -0.894840         2.702394
 H         2.344545        -2.158442         0.236266
