19
Iteration:  3187charge 0 multiplicity 1
 C        -0.069859        -0.363232         0.066144
 C         1.414807        -0.070111         0.083844
 O         1.979575         0.159494        -1.219498
 C         3.247340        -0.176261        -0.490273
 C         3.366191         0.994232         0.341736
 C         2.092695         0.734152         1.209105
 O         1.593505         1.813997         1.824236
 C         2.464772        -0.546192         1.968230
 C         2.567125        -1.101896         0.524119
 H        -0.762326        -0.226201         0.984416
 H        -0.518498         0.453608        -0.475303
 H        -0.329961        -1.235086        -0.499138
 H         4.104371        -0.428645        -1.162883
 H         4.302658         1.211189         0.835546
 H         3.182951         1.921887        -0.188671
 H         1.528416         2.557279         1.218979
 H         3.264550        -0.524308         2.638445
 H         1.603493        -1.018395         2.549457
 H         2.466316        -2.159025         0.463848
