19
Iteration:  4899charge 0 multiplicity 1
 C        -0.075996        -0.313204         0.050318
 C         1.382353        -0.208929         0.056406
 O         1.959780         0.082433        -1.177165
 C         3.252621        -0.231201        -0.462540
 C         3.384001         1.188717         0.321436
 C         2.160608         0.823758         1.113192
 O         1.511324         1.764248         1.941354
 C         2.645794        -0.460835         1.877712
 C         2.402265        -1.156991         0.558696
 H        -0.403345        -0.281100         1.092631
 H        -0.566169         0.380147        -0.715170
 H        -0.436811        -1.285375        -0.403875
 H         4.157651        -0.543394        -0.889982
 H         4.331372         1.155656         0.894720
 H         3.284098         2.052442        -0.473496
 H         1.339385         2.505536         1.350935
 H         3.602602        -0.523956         2.300125
 H         1.941205        -0.649533         2.650497
 H         2.393498        -2.278408         0.263761
