19
Iteration:  1430
 C        -0.148732        -0.128238        -0.123446
 C         1.368903        -0.103330         0.051909
 O         2.130825         0.189328        -1.166288
 C         3.273926        -0.216605        -0.399655
 C         3.452566         1.095131         0.419539
 C         2.162815         0.715506         1.188733
 O         1.484769         1.755559         1.884447
 C         2.473255        -0.629137         1.902311
 C         2.413160        -1.223234         0.456694
 H        -0.652298        -0.628056         0.731255
 H        -0.461693         0.948324        -0.086604
 H        -0.258315        -0.645679        -1.066899
 H         4.193538        -0.458685        -1.068693
 H         4.338412         1.379420         0.912367
 H         3.134054         1.841038        -0.316954
 H         1.855229         1.885611         2.740714
 H         3.318386        -0.538727         2.607486
 H         1.546351        -0.972010         2.409254
 H         2.192296        -2.274407         0.166895
