19
Iteration:  1417
 C        -0.054924        -0.012290        -0.057373
 C         1.412110        -0.110910         0.042126
 O         2.063802         0.118172        -1.254552
 C         3.329935        -0.169547        -0.463779
 C         3.343766         1.000437         0.427729
 C         2.090500         0.707961         1.255075
 O         1.449437         1.777662         1.845676
 C         2.436037        -0.630739         1.942893
 C         2.521935        -1.166924         0.470628
 H        -0.527347        -0.541834         0.792822
 H        -0.472434         1.001007        -0.192013
 H        -0.549310        -0.465374        -0.912316
 H         4.185851        -0.496917        -1.074252
 H         4.193011         0.911988         1.116624
 H         3.415368         1.952828        -0.100038
 H         1.767892         1.766896         2.798166
 H         3.391191        -0.836641         2.497282
 H         1.638186        -1.086625         2.506943
 H         2.793680        -2.175547         0.167652
