19
Iteration:  2966
 C        -0.092709        -0.445279        -0.206263
 C         1.279342        -0.113975         0.061462
 O         1.958171         0.082616        -1.109692
 C         3.175769        -0.221354        -0.455175
 C         3.394839         1.117954         0.293122
 C         2.195284         0.808292         1.221959
 O         1.690127         1.935869         2.020710
 C         2.490180        -0.483687         1.940542
 C         2.474584        -1.207032         0.557765
 H        -0.706102        -0.556096         0.636336
 H        -0.577774         0.242938        -0.957674
 H        -0.023488        -1.452339        -0.735805
 H         3.851075        -0.601672        -1.265455
 H         4.334385         1.323795         0.737622
 H         3.231127         1.963084        -0.378126
 H         1.955656         2.727617         1.558336
 H         3.461605        -0.466378         2.444026
 H         1.672689        -0.786080         2.541575
 H         2.424286        -2.368838         0.371801
