19
Iteration:  2091
 C        -0.118469        -0.178119        -0.034158
 C         1.441100        -0.072789         0.041610
 O         2.006223         0.216073        -1.213021
 C         3.247911        -0.181009        -0.447092
 C         3.513184         1.071071         0.475731
 C         2.228874         0.738063         1.222886
 O         1.554968         1.794445         1.868310
 C         2.366321        -0.678708         1.922261
 C         2.454382        -1.185216         0.451642
 H        -0.556536        -0.736107         0.876660
 H        -0.445382         0.892757        -0.136203
 H        -0.323201        -0.656846        -1.011236
 H         4.070796        -0.619692        -1.030288
 H         4.408531         1.247992         1.144882
 H         3.320028         1.917127        -0.244992
 H         0.673334         1.415469         1.846997
 H         3.301249        -0.810366         2.483349
 H         1.496515        -0.996297         2.465871
 H         2.486772        -2.197112         0.001670
