19
Iteration:   511
 C        -0.012215        -0.055070        -0.059269
 C         1.396981        -0.096993        -0.031483
 O         2.159351         0.134144        -1.267103
 C         3.323781        -0.216264        -0.394478
 C         3.447528         1.030634         0.483818
 C         2.163953         0.747382         1.268257
 O         1.436714         1.762881         1.934066
 C         2.310210        -0.687580         1.889415
 C         2.341080        -1.174680         0.414713
 H        -0.546490        -0.320296         0.884051
 H        -0.321895         1.019097        -0.231418
 H        -0.492438        -0.692036        -0.821216
 H         4.140560        -0.500445        -1.118940
 H         4.418117         1.105982         1.033982
 H         3.367557         2.002611        -0.067984
 H         2.173941         2.160256         2.383171
 H         3.250809        -0.764892         2.534736
 H         1.456474        -1.068069         2.443849
 H         2.362137        -2.090554        -0.091162
