19
Iteration:  2880charge 0 multiplicity 1
 C        -0.038442        -0.129309         0.244463
 C         1.422516        -0.100596         0.017890
 O         2.019132         0.150431        -1.198194
 C         3.340390        -0.227998        -0.516595
 C         3.424068         1.043176         0.292232
 C         2.176513         0.713142         1.193733
 O         1.327673         1.752435         1.617494
 C         2.540535        -0.581400         1.934499
 C         2.494089        -1.139559         0.575407
 H        -0.017061        -0.500057         1.238705
 H        -0.414497         0.916342         0.310786
 H        -0.680266        -0.740405        -0.435489
 H         4.189524        -0.483006        -1.176895
 H         4.297971         1.108495         0.954023
 H         3.000933         1.922881        -0.204651
 H         1.413695         2.117028         2.553878
 H         3.339459        -0.788735         2.617345
 H         1.616572        -0.836936         2.471056
 H         2.391418        -2.314476         0.517993
