19
Iteration:  2929
 C        -0.125392        -0.267639         0.089749
 C         1.385188        -0.129230        -0.003487
 O         1.991863         0.089182        -1.277841
 C         3.198469        -0.237156        -0.483500
 C         3.477852         1.044377         0.435316
 C         2.155850         0.783463         1.263436
 O         1.434976         1.854048         1.773871
 C         2.552855        -0.502036         1.928012
 C         2.503529        -1.149265         0.499554
 H        -0.369545        -0.425259         1.207163
 H        -0.750873         0.531662        -0.378347
 H        -0.339327        -1.214040        -0.422019
 H         4.013093        -0.518079        -1.191271
 H         4.392746         0.890794         1.077845
 H         3.412547         1.951364        -0.199049
 H         2.020225         2.459968         2.208989
 H         3.567652        -0.422898         2.460594
 H         1.839713        -0.885872         2.721881
 H         2.599174        -2.190840         0.292568
