19
Iteration:  3677charge 0 multiplicity 1
 C        -0.123187        -0.424392         0.052232
 C         1.335667        -0.073336         0.047020
 O         2.067628         0.029464        -1.213696
 C         3.288597        -0.235346        -0.458225
 C         3.374192         1.148489         0.279635
 C         2.134926         0.831456         1.112048
 O         1.658956         1.949986         1.927351
 C         2.466579        -0.593300         1.909676
 C         2.445418        -1.088656         0.491503
 H        -0.538107        -0.731849         1.029490
 H        -0.647947         0.459710        -0.250980
 H        -0.449828        -1.237088        -0.577853
 H         4.029445        -0.428198        -1.161431
 H         4.110504         1.450422         1.014548
 H         3.276645         1.986234        -0.314756
 H         1.240063         1.524189         2.716287
 H         3.402703        -0.603215         2.469360
 H         1.611319        -0.926830         2.584793
 H         2.287580        -2.158460         0.331980
