19
Iteration:  4317charge 0 multiplicity 1
 C        -0.107610        -0.415710         0.121326
 C         1.352875        -0.126498         0.036254
 O         2.039337         0.031506        -1.225751
 C         3.232364        -0.132314        -0.499959
 C         3.439217         1.132313         0.323379
 C         2.177641         0.789200         1.212428
 O         1.462973         1.916237         1.779212
 C         2.524014        -0.552482         1.960023
 C         2.461134        -1.168884         0.492510
 H        -0.300632        -0.492298         1.259939
 H        -0.725025         0.528655        -0.215238
 H        -0.494787        -1.253372        -0.419789
 H         4.054281        -0.419846        -1.169434
 H         4.358155         1.036467         0.976067
 H         3.318187         2.075276        -0.161022
 H         2.006353         2.458003         2.379537
 H         3.513090        -0.545056         2.532469
 H         1.610618        -0.949577         2.423876
 H         2.666029        -2.131847         0.250779
