19
Iteration:   166charge 0 multiplicity 1
 C        -0.110264        -0.187036        -0.004915
 C         1.376545        -0.039673        -0.099675
 O         2.192555         0.093579        -1.307064
 C         3.310755        -0.180749        -0.424648
 C         3.510983         0.953692         0.573660
 C         2.143408         0.883278         1.200552
 O         1.476351         1.851462         1.910483
 C         2.360396        -0.620300         1.836361
 C         2.338218        -1.113159         0.455703
 H        -0.279114        -0.518333         1.025008
 H        -0.662635         0.708230        -0.164471
 H        -0.501266        -1.003977        -0.576839
 H         4.154331        -0.711712        -0.928908
 H         4.193139         0.620715         1.324044
 H         3.932602         1.796779         0.045581
 H         1.155540         1.600673         2.770353
 H         3.241178        -0.881983         2.341779
 H         1.490113        -1.007054         2.278943
 H         2.420524        -2.284855         0.246628
