19
Iteration:   436
 C        -0.091425        -0.231244        -0.182679
 C         1.343841         0.037974         0.074391
 O         2.138486         0.261858        -1.189230
 C         3.266299        -0.232439        -0.454382
 C         3.655673         0.852373         0.475186
 C         2.197702         0.818165         1.291942
 O         1.476768         1.762908         1.997462
 C         2.335075        -0.644359         1.908702
 C         2.356117        -1.096428         0.385481
 H        -0.730630        -0.640715         0.685257
 H        -0.818645         0.622249        -0.586375
 H        -0.092090        -1.010731        -1.025407
 H         4.056561        -0.759014        -1.073957
 H         4.536404         0.731243         1.162837
 H         3.735386         1.803605        -0.129649
 H         0.925091         2.284347         1.332463
 H         3.306730        -0.807022         2.556286
 H         1.404118        -0.818117         2.503838
 H         2.085388        -2.064855         0.143300
