19
Iteration:  2396charge 0 multiplicity 1
 C        -0.088414        -0.002220         0.047247
 C         1.420737        -0.089301         0.015856
 O         2.035681         0.095918        -1.296136
 C         3.288618        -0.222543        -0.556229
 C         3.450417         1.044919         0.420468
 C         2.150641         0.799676         1.223979
 O         1.425925         1.712145         1.879450
 C         2.575608        -0.556483         1.914395
 C         2.420711        -1.232367         0.538320
 H        -0.475331        -0.036130         1.117194
 H        -0.351980         0.930570        -0.428169
 H        -0.651187        -0.805868        -0.423649
 H         4.112876        -0.560087        -1.256384
 H         4.182702         1.208327         1.164257
 H         3.597418         1.918303        -0.234499
 H         0.972418         1.112804         2.548466
 H         3.555233        -0.588692         2.436415
 H         1.669986        -0.918200         2.398312
 H         2.387683        -2.311952         0.560966
