19
Iteration:  3754charge 0 multiplicity 1
 C        -0.006375        -0.195917         0.188168
 C         1.493424        -0.211453         0.028237
 O         2.022272         0.101517        -1.245794
 C         3.297479        -0.225225        -0.547116
 C         3.354842         1.121869         0.352197
 C         2.105129         0.720343         1.185140
 O         1.473666         1.878050         1.719387
 C         2.506518        -0.566123         1.962580
 C         2.495411        -1.135375         0.557274
 H        -0.055435        -0.423396         1.258388
 H        -0.604873         0.694678         0.067048
 H        -0.601183        -0.925730        -0.381264
 H         4.134322        -0.605649        -1.107601
 H         4.202396         1.416740         0.975164
 H         3.155203         2.008770        -0.189943
 H         0.627768         1.774199         2.254885
 H         3.457195        -0.649806         2.540988
 H         1.586069        -1.042118         2.409299
 H         2.218412        -2.237840         0.338525
