19
Iteration:  2385charge 0 multiplicity 1
 C        -0.100023         0.012074         0.008779
 C         1.374630        -0.155971         0.011435
 O         2.042166         0.075517        -1.237537
 C         3.274766        -0.248350        -0.459965
 C         3.468279         1.133105         0.324769
 C         2.244053         0.741272         1.173489
 O         1.449363         1.666633         1.937049
 C         2.469030        -0.564925         1.891312
 C         2.456306        -1.101362         0.513026
 H        -0.422524         0.149669         1.088780
 H        -0.364417         0.913958        -0.506913
 H        -0.542560        -0.851968        -0.485996
 H         4.124952        -0.788732        -0.967836
 H         4.399950         1.140660         0.831751
 H         3.128831         1.990199        -0.254166
 H         0.935471         1.295400         2.667509
 H         3.359981        -0.778114         2.519721
 H         1.688624        -0.825736         2.596826
 H         2.589210        -2.133727         0.231204
