19
Iteration:  1074
 C        -0.002654         0.033450         0.023991
 C         1.477827        -0.063177         0.075255
 O         2.067108         0.169302        -1.161662
 C         3.302393        -0.261432        -0.529120
 C         3.565462         1.021983         0.440287
 C         2.183281         0.667719         1.262892
 O         1.349876         1.810742         1.695163
 C         2.387596        -0.692814         1.970900
 C         2.450651        -1.172799         0.415105
 H        -0.587294        -0.038983         0.988021
 H        -0.592293         0.950834        -0.148140
 H        -0.482707        -0.767887        -0.619699
 H         4.074674        -0.711098        -1.065124
 H         4.454004         1.002976         1.059967
 H         3.454496         2.041158         0.033444
 H         0.867055         1.616688         2.559402
 H         3.004709        -0.876867         2.914937
 H         1.483029        -1.300438         2.176020
 H         2.289840        -2.209746         0.116111
