19
Iteration:   952charge 0 multiplicity 1
 C        -0.099984        -0.305422        -0.143746
 C         1.363901        -0.120903        -0.068356
 O         2.096839         0.143748        -1.248140
 C         3.299523        -0.157495        -0.411018
 C         3.402449         0.971317         0.567712
 C         2.140789         0.808088         1.237000
 O         1.731622         2.033076         1.926625
 C         2.331457        -0.755823         1.896405
 C         2.321616        -1.100498         0.432868
 H        -0.561929        -0.562727         0.840836
 H        -0.720768         0.450752        -0.618350
 H        -0.177931        -1.082778        -0.851565
 H         4.086844        -0.391939        -1.064833
 H         4.336946         0.861258         1.085413
 H         3.189252         1.968336         0.162647
 H         1.271936         1.784303         2.744339
 H         3.260042        -0.782441         2.427713
 H         1.507884        -1.179214         2.543295
 H         2.448650        -2.174738         0.212963
