19
Iteration:  1944charge 0 multiplicity 1
 C        -0.059162        -0.197289        -0.012169
 C         1.465650        -0.134542         0.055587
 O         2.133595         0.354882        -1.223261
 C         3.310483        -0.135942        -0.521143
 C         3.519813         1.030555         0.430148
 C         2.083154         0.668352         1.201201
 O         1.516175         1.767564         2.010046
 C         2.305655        -0.678147         1.878333
 C         2.379184        -1.252551         0.437224
 H        -0.459760        -0.013318         0.981790
 H        -0.399369         0.554902        -0.771078
 H        -0.343154        -1.232671        -0.363829
 H         4.009939        -0.619566        -1.225894
 H         4.351393         1.023365         1.142155
 H         3.428588         2.080930         0.068219
 H         1.372906         2.436841         1.320093
 H         3.007436        -0.646125         2.731082
 H         1.343683        -1.092446         2.361879
 H         2.245937        -2.275270         0.015655
