19
Iteration:  4609charge 0 multiplicity 1
 C        -0.171056        -0.346374         0.081914
 C         1.353256        -0.108364         0.062732
 O         2.021491         0.063511        -1.225368
 C         3.312566        -0.213321        -0.454858
 C         3.493825         1.120818         0.268090
 C         2.195368         0.803125         1.187200
 O         1.385695         1.821065         1.815353
 C         2.544740        -0.501054         1.943986
 C         2.470096        -1.123340         0.487030
 H        -0.342116        -0.931187         1.079642
 H        -0.773674         0.521648         0.182352
 H        -0.429423        -1.047580        -0.665714
 H         4.176910        -0.463608        -1.038273
 H         4.397345         1.259619         0.902636
 H         3.593227         1.954197        -0.356978
 H         1.946828         2.262604         2.508562
 H         3.447632        -0.645801         2.510139
 H         1.721376        -0.651071         2.580290
 H         2.358188        -2.211223         0.407288
