19
Iteration:  1048
 C        -0.087153         0.039773         0.122222
 C         1.388371        -0.221989        -0.051194
 O         2.137024         0.202079        -1.223305
 C         3.350324        -0.188760        -0.383911
 C         3.408110         0.984822         0.560298
 C         2.077846         0.670874         1.108515
 O         1.504898         1.846961         1.719117
 C         2.467565        -0.630884         1.859129
 C         2.397131        -1.241999         0.444334
 H        -0.458832        -0.078014         1.125876
 H        -0.483753         1.005740        -0.171239
 H        -0.791616        -0.536571        -0.431713
 H         4.358233        -0.639544        -0.820064
 H         4.127760         0.897398         1.404746
 H         3.475767         2.033780         0.217992
 H         0.747136         1.433799         2.237150
 H         3.427684        -0.689408         2.269040
 H         1.704727        -1.064198         2.541704
 H         2.605853        -2.308575         0.238704
