19
Iteration:  1991charge 0 multiplicity 1
 C        -0.113700        -0.302510        -0.028901
 C         1.406396        -0.064343         0.010159
 O         2.130749         0.312462        -1.204086
 C         3.276848        -0.219049        -0.505912
 C         3.472415         0.976149         0.562466
 C         2.090653         0.829164         1.218962
 O         1.485633         1.856795         1.842088
 C         2.399624        -0.772639         1.901500
 C         2.385964        -1.126356         0.384233
 H        -0.358168        -0.561592         1.081562
 H        -0.480866         0.667057        -0.316009
 H        -0.478231        -1.139751        -0.748527
 H         4.082470        -0.369447        -1.231436
 H         4.262678         0.811806         1.363068
 H         3.594745         1.937236         0.041084
 H         2.193683         2.134043         2.529278
 H         3.383239        -0.911887         2.367640
 H         1.627115        -1.116242         2.554519
 H         2.292559        -2.215686         0.106817
