19
Iteration:    81charge 0 multiplicity 1
 C        -0.120024        -0.208327        -0.155977
 C         1.422217        -0.064908        -0.080457
 O         2.204312         0.127938        -1.284999
 C         3.295217        -0.256279        -0.422214
 C         3.430276         0.978837         0.492053
 C         2.097161         0.803962         1.195883
 O         1.628123         1.819942         1.992978
 C         2.373073        -0.519856         1.915734
 C         2.333580        -1.131887         0.517472
 H        -0.396030        -0.392183         0.932071
 H        -0.679302         0.750195        -0.350819
 H        -0.627789        -1.001600        -0.777041
 H         4.179707        -0.729090        -0.896748
 H         4.297462         0.859419         1.147794
 H         3.461952         1.925607        -0.071612
 H         0.678468         1.682032         2.091155
 H         3.196971        -0.605801         2.650334
 H         1.399728        -0.813913         2.519728
 H         2.211685        -2.275078         0.345823
