19
Iteration:  2201charge 0 multiplicity 1
 C        -0.183012        -0.033344        -0.115959
 C         1.351927        -0.102602         0.014986
 O         2.109344         0.080638        -1.236905
 C         3.264986        -0.197229        -0.490101
 C         3.548443         1.145209         0.459879
 C         2.095001         0.741177         1.221975
 O         1.468135         1.717648         1.951464
 C         2.570213        -0.617925         1.899722
 C         2.431041        -1.189078         0.499886
 H        -0.756193         0.000292         0.853679
 H        -0.582260         0.846227        -0.611203
 H        -0.728953        -0.632720        -0.833835
 H         4.034890        -0.644396        -1.175068
 H         4.320980         1.176462         1.281361
 H         3.366204         1.951213        -0.325273
 H         1.282018         1.309393         2.835169
 H         3.576121        -0.667680         2.334696
 H         1.945174        -1.075635         2.660449
 H         2.367434        -2.212844         0.133852
