19
Iteration:   116charge 0 multiplicity 1
 C        -0.098163        -0.247622        -0.321757
 C         1.346044        -0.141288         0.011245
 O         1.998491         0.154503        -1.206304
 C         3.252554        -0.179424        -0.363604
 C         3.403000         1.002422         0.587870
 C         2.150184         0.767687         1.312285
 O         1.728945         1.984941         1.835099
 C         2.436760        -0.717774         1.950711
 C         2.410142        -1.155667         0.488034
 H        -0.706349        -0.641360         0.528430
 H        -0.366478         0.834882        -0.519410
 H        -0.320557        -0.878973        -1.230474
 H         4.136771        -0.577192        -0.869025
 H         4.392486         0.991382         1.161850
 H         3.326408         1.988883         0.090770
 H         0.830686         2.033033         2.156170
 H         3.406110        -0.815501         2.552276
 H         1.469676        -1.152981         2.441658
 H         2.398348        -2.167754         0.124843
