19
Iteration:  3151charge 0 multiplicity 1
 C        -0.129607        -0.476010        -0.028528
 C         1.307999        -0.211256        -0.060336
 O         1.983148         0.074017        -1.256685
 C         3.204829        -0.145977        -0.457983
 C         3.447691         1.040433         0.421524
 C         2.155096         0.892532         1.248910
 O         1.582902         1.928948         1.920404
 C         2.553407        -0.518021         1.936154
 C         2.416954        -1.102489         0.563627
 H        -0.458371        -0.557558         0.978432
 H        -0.402446         0.427641        -0.568226
 H        -0.412434        -1.355771        -0.623888
 H         3.876866        -0.387499        -1.245624
 H         4.422919         0.879043         0.859801
 H         3.418741         1.879324        -0.291733
 H         2.198178         2.653675         1.944353
 H         3.601741        -0.480097         2.320467
 H         1.869914        -0.881362         2.677775
 H         2.348215        -2.194456         0.324882
