19
Iteration:  3702
 C        -0.053934        -0.251196        -0.015810
 C         1.397905        -0.162758         0.058304
 O         1.927016         0.074012        -1.213166
 C         3.174923        -0.239149        -0.494239
 C         3.414166         1.017987         0.311674
 C         2.233719         0.777368         1.249946
 O         1.510165         1.851916         1.868888
 C         2.574319        -0.432616         1.965256
 C         2.534138        -1.130658         0.537336
 H        -0.661187        -0.593320         0.824408
 H        -0.473004         0.694517        -0.386735
 H        -0.368153        -1.045964        -0.883646
 H         3.947302        -0.383459        -1.290975
 H         4.385214         1.210129         0.758863
 H         3.303184         1.948349        -0.328898
 H         0.727257         1.539822         2.422288
 H         3.601907        -0.390355         2.440127
 H         1.826155        -0.702989         2.678008
 H         2.420608        -2.259772         0.399647
