19
Iteration:  1470
 C        -0.120739        -0.354614        -0.134471
 C         1.409851         0.011695         0.032023
 O         2.066200         0.214563        -1.271077
 C         3.266988        -0.200751        -0.554091
 C         3.472105         0.928268         0.566057
 C         2.081127         0.772346         1.291713
 O         1.516459         1.841626         1.997806
 C         2.396172        -0.572657         1.877055
 C         2.481150        -1.109569         0.435734
 H        -0.703506        -0.829750         0.700515
 H        -0.666681         0.607038        -0.310056
 H        -0.150746        -1.112156        -1.014808
 H         3.995003        -0.670883        -1.119791
 H         4.398769         0.487588         1.117300
 H         3.621089         1.875911         0.014004
 H         2.368324         2.383170         2.127874
 H         3.313809        -0.497974         2.515835
 H         1.609288        -0.990487         2.485786
 H         2.053474        -2.060827         0.162399
