19
Iteration:  3839charge 0 multiplicity 1
 C        -0.176525        -0.423696        -0.134301
 C         1.347633        -0.213357         0.147956
 O         1.954430         0.055529        -1.130804
 C         3.249552        -0.147720        -0.494134
 C         3.403641         1.159782         0.236218
 C         2.142186         0.858652         1.150740
 O         1.689914         2.003790         1.887696
 C         2.513616        -0.596554         1.947971
 C         2.529994        -1.183230         0.621057
 H        -0.801799        -0.809285         0.786601
 H        -0.576327         0.561790        -0.607562
 H        -0.274896        -1.269517        -0.762073
 H         4.078584        -0.483520        -1.078954
 H         4.320782         1.392409         0.912121
 H         3.108473         1.991336        -0.400416
 H         0.840373         1.800330         2.241795
 H         3.400912        -0.551316         2.548862
 H         1.792789        -0.989710         2.708665
 H         2.691415        -2.252204         0.310161
