19
Iteration:  2175charge 0 multiplicity 1
 C        -0.045303        -0.177561        -0.069424
 C         1.407796        -0.113079        -0.007665
 O         1.981853         0.201010        -1.306424
 C         3.311926        -0.204624        -0.478274
 C         3.445339         1.038716         0.491314
 C         2.076103         0.727363         1.241795
 O         1.606736         1.832350         1.975530
 C         2.422199        -0.603689         1.894533
 C         2.469971        -1.149933         0.426219
 H        -0.590585         0.076557         0.833114
 H        -0.439416         0.549428        -0.762743
 H        -0.515470        -1.112363        -0.510356
 H         4.168232        -0.679667        -0.986419
 H         4.222824         1.062032         1.246028
 H         3.368399         1.923747        -0.086703
 H         1.178445         1.364827         2.747015
 H         3.228728        -0.698217         2.667182
 H         1.564059        -1.184910         2.323986
 H         2.351457        -2.253567         0.307592
