19
Iteration:   112
 C        -0.150441        -0.248182        -0.307086
 C         1.368057        -0.163983         0.008841
 O         2.007100         0.129249        -1.227260
 C         3.259489        -0.176290        -0.325791
 C         3.444928         1.001670         0.610214
 C         2.121341         0.794188         1.312223
 O         1.725670         2.016820         1.868595
 C         2.440655        -0.718384         1.920596
 C         2.415766        -1.160107         0.445431
 H        -0.823863        -0.608645         0.503194
 H        -0.429807         0.787630        -0.533224
 H        -0.407129        -0.834583        -1.200298
 H         4.140962        -0.656491        -0.802158
 H         4.367158         1.042436         1.109038
 H         3.454503         1.946840         0.078598
 H         0.765026         2.026205         2.109782
 H         3.348433        -0.711637         2.466965
 H         1.605062        -1.206441         2.471329
 H         2.470731        -2.282930         0.039045
