19
Iteration:  4112charge 0 multiplicity 1
 C        -0.080501        -0.270163         0.010141
 C         1.404741        -0.194228         0.049836
 O         2.007170         0.082993        -1.251198
 C         3.279968        -0.215121        -0.477893
 C         3.359674         1.145667         0.328824
 C         2.104042         0.770905         1.209937
 O         1.473485         1.856598         1.861336
 C         2.521379        -0.541059         1.987729
 C         2.510384        -1.185042         0.541494
 H        -0.302626        -0.278667         1.099694
 H        -0.631956         0.708128        -0.140737
 H        -0.390456        -1.130072        -0.519086
 H         4.209822        -0.473679        -1.039592
 H         4.294058         1.252896         0.923673
 H         3.288062         1.919430        -0.461757
 H         1.839880         2.711528         1.698236
 H         3.522626        -0.708319         2.458538
 H         1.602569        -1.088790         2.425871
 H         2.679070        -2.301888         0.463752
