19
Iteration:   548
 C        -0.168421         0.065933        -0.082236
 C         1.401504        -0.072596        -0.003218
 O         2.095901         0.236509        -1.162371
 C         3.272955        -0.234188        -0.407423
 C         3.664901         0.946194         0.417432
 C         2.154142         0.715889         1.223196
 O         1.304364         1.705151         1.818083
 C         2.519436        -0.662976         1.935348
 C         2.426896        -1.194233         0.463853
 H        -0.664848        -0.021431         0.924206
 H        -0.301673         1.100501        -0.597611
 H        -0.502932        -0.706188        -0.855105
 H         3.976274        -0.748093        -1.053928
 H         4.524920         0.754804         1.093419
 H         3.664275         1.885624        -0.133580
 H         0.919513         1.468785         2.653708
 H         3.457495        -0.408189         2.513815
 H         1.721776        -1.075514         2.654953
 H         2.546009        -2.304866         0.214063
