19
Iteration:   600
 C        -0.214747        -0.257142        -0.082460
 C         1.354796        -0.186479        -0.092813
 O         2.184748         0.187026        -1.267283
 C         3.360274        -0.170884        -0.458357
 C         3.419454         0.989886         0.520694
 C         2.130612         0.788554         1.224759
 O         1.723160         1.861276         2.021390
 C         2.298169        -0.659618         1.884191
 C         2.401073        -1.092264         0.441210
 H        -0.713206        -0.224769         0.927957
 H        -0.544739         0.829927        -0.256034
 H        -0.740184        -0.974243        -0.783067
 H         4.233293        -0.422044        -1.164693
 H         4.175675         0.970365         1.363412
 H         3.454389         1.973328         0.004435
 H         0.800499         2.007334         1.971407
 H         3.164247        -0.849505         2.580263
 H         1.322621        -1.097120         2.216254
 H         2.347811        -2.149739         0.299667
