19
Iteration:  2430
 C        -0.130077        -0.232917         0.062996
 C         1.377614        -0.116269         0.056124
 O         1.988146         0.231530        -1.212841
 C         3.283657        -0.197397        -0.458020
 C         3.472391         1.067039         0.474553
 C         2.182854         0.717139         1.240934
 O         1.567443         1.903615         1.709792
 C         2.506288        -0.690312         1.886570
 C         2.451104        -1.169353         0.478597
 H        -0.537936        -0.527083         1.056166
 H        -0.599350         0.779407         0.083239
 H        -0.554577        -0.777735        -0.748682
 H         3.994268        -0.529134        -1.226074
 H         4.288760         1.044259         1.154900
 H         3.488116         1.863113        -0.266541
 H         0.814203         1.662843         2.312013
 H         3.312470        -0.950690         2.602252
 H         1.689682        -1.253888         2.326344
 H         2.499934        -2.219412         0.319100
