19
Iteration:  3919charge 0 multiplicity 1
 C        -0.052792        -0.234142         0.203271
 C         1.419805        -0.157384         0.056031
 O         1.967117         0.145944        -1.194152
 C         3.265216        -0.160961        -0.522447
 C         3.431321         1.066157         0.325460
 C         2.092471         0.729603         1.186736
 O         1.434730         1.830566         1.606082
 C         2.528633        -0.561735         2.015423
 C         2.556327        -1.185784         0.557810
 H        -0.340552        -0.413972         1.243210
 H        -0.457612         0.704042        -0.205581
 H        -0.356535        -1.044297        -0.595854
 H         4.050856        -0.405236        -1.291852
 H         4.230271         1.038255         1.042637
 H         3.520448         2.047501        -0.195961
 H         1.346431         1.938323         2.552642
 H         3.415681        -0.373941         2.712605
 H         1.626292        -0.965611         2.467841
 H         2.643030        -2.319328         0.272995
