19
Iteration:  3351
 C        -0.067834        -0.368435         0.093877
 C         1.399930        -0.204191        -0.015352
 O         1.995622         0.086189        -1.277353
 C         3.221278        -0.136786        -0.508689
 C         3.419971         1.050223         0.406145
 C         2.151854         0.794858         1.207963
 O         1.547537         1.854536         1.828380
 C         2.406059        -0.526063         1.965135
 C         2.523424        -1.127566         0.512080
 H        -0.156033        -0.425647         1.248270
 H        -0.444405         0.636821        -0.048374
 H        -0.582221        -1.152886        -0.483606
 H         4.102669        -0.543907        -1.086848
 H         4.313763         1.087486         1.056759
 H         3.421991         2.019360        -0.092840
 H         1.914421         2.742123         1.748536
 H         3.266735        -0.417115         2.609711
 H         1.509207        -0.851716         2.593447
 H         2.309075        -2.157330         0.169666
