19
Iteration:  2431
 C        -0.133749        -0.241343         0.064916
 C         1.375959        -0.113049         0.055745
 O         1.987473         0.236003        -1.213875
 C         3.281448        -0.197342        -0.457841
 C         3.471902         1.078301         0.477769
 C         2.191642         0.712778         1.228666
 O         1.576268         1.905374         1.708841
 C         2.502006        -0.695170         1.891501
 C         2.454512        -1.177330         0.485207
 H        -0.523575        -0.554558         1.037008
 H        -0.610830         0.791920         0.082356
 H        -0.543691        -0.782761        -0.761306
 H         3.982342        -0.473432        -1.218775
 H         4.299489         1.040008         1.154606
 H         3.453445         1.857641        -0.267752
 H         0.803266         1.675664         2.307415
 H         3.287773        -0.956246         2.618341
 H         1.665734        -1.241701         2.308356
 H         2.453566        -2.231712         0.333829
