19
Iteration:  2020
 C        -0.137344        -0.118836        -0.065207
 C         1.421114        -0.061605         0.136718
 O         2.071840         0.187475        -1.219543
 C         3.293232        -0.253278        -0.503952
 C         3.537327         1.101268         0.462679
 C         2.168341         0.778751         1.214850
 O         1.459973         1.702169         1.855118
 C         2.410076        -0.647151         1.960753
 C         2.422236        -1.169553         0.403948
 H        -0.697659        -0.785050         0.539129
 H        -0.495977         0.885746        -0.169417
 H        -0.184530        -0.513631        -1.087600
 H         4.048479        -0.562073        -1.237946
 H         4.361718         1.188159         1.130689
 H         3.297444         1.971069        -0.151602
 H         1.672590         1.558571         2.790241
 H         3.315520        -0.616989         2.580733
 H         1.453222        -0.903031         2.507149
 H         2.345929        -2.233071         0.083407
