19
Iteration:  1168
 C        -0.129109        -0.272053        -0.230783
 C         1.317814        -0.054894         0.039419
 O         2.065672         0.237388        -1.255895
 C         3.290838        -0.192197        -0.465293
 C         3.529846         0.961526         0.424841
 C         2.121213         0.759783         1.214470
 O         1.648513         1.842752         1.940840
 C         2.327568        -0.554956         1.993325
 C         2.429243        -1.176586         0.558227
 H        -0.727450        -0.488774         0.606540
 H        -0.626128         0.574974        -0.598878
 H        -0.191560        -1.054311        -0.927079
 H         4.107602        -0.510872        -1.216624
 H         4.428469         0.836238         1.070115
 H         3.682283         1.896502        -0.129125
 H         1.492631         1.416935         2.815318
 H         3.054173        -0.506850         2.749579
 H         1.448346        -1.053488         2.354080
 H         2.265248        -2.250122         0.377840
