19
Iteration:  3574
 C        -0.122444        -0.115113         0.138600
 C         1.416492        -0.189997         0.156637
 O         2.028095        -0.013933        -1.260445
 C         3.239308        -0.227175        -0.470436
 C         3.373775         1.094028         0.419048
 C         2.083851         0.871241         1.102632
 O         1.481737         1.810865         1.826402
 C         2.602824        -0.522462         1.840022
 C         2.610904        -1.148366         0.482507
 H        -0.601179        -0.417861         1.100347
 H        -0.447868         0.918949        -0.197529
 H        -0.513921        -0.739078        -0.660809
 H         4.068227        -0.717894        -1.082326
 H         4.181909         0.988461         1.158386
 H         3.233594         1.962999        -0.301964
 H         0.611005         1.604337         2.095947
 H         3.558012        -0.589228         2.443955
 H         1.813281        -0.907315         2.487800
 H         2.493416        -2.221596         0.340375
