19
Iteration:  4254
 C        -0.089929        -0.358515         0.030905
 C         1.399045        -0.142270         0.077040
 O         1.924087         0.055452        -1.229998
 C         3.319544        -0.207407        -0.450322
 C         3.423020         1.095461         0.338317
 C         2.166100         0.841089         1.167166
 O         1.504451         1.786872         1.913011
 C         2.603274        -0.452235         1.945024
 C         2.417539        -1.124480         0.542826
 H        -0.627800        -0.182072         0.932888
 H        -0.367154         0.655845        -0.409084
 H        -0.326799        -1.197201        -0.528521
 H         4.042802        -0.687549        -1.175371
 H         4.378933         1.282751         0.740257
 H         3.291850         2.008522        -0.252806
 H         1.082398         2.173227         1.140885
 H         3.516537        -0.578288         2.545530
 H         1.772604        -0.818257         2.556571
 H         2.519744        -2.178841         0.190897
