19
Iteration:    30charge 0 multiplicity 1
 C        -0.163252        -0.046721        -0.016126
 C         1.402108        -0.156919        -0.046175
 O         2.116917         0.196647        -1.268282
 C         3.333697        -0.204210        -0.369594
 C         3.493051         0.922947         0.623507
 C         2.065337         0.696961         1.218717
 O         1.488368         1.889339         1.667423
 C         2.404868        -0.647606         1.943352
 C         2.453918        -1.211158         0.449890
 H        -0.632569        -0.102307         0.957127
 H        -0.395200         0.950922        -0.399406
 H        -0.658720        -0.800074        -0.622242
 H         4.211129        -0.566537        -0.918877
 H         4.318349         0.717726         1.379711
 H         3.450820         1.910735         0.133874
 H         1.426563         1.944906         2.661103
 H         3.410814        -0.598508         2.406210
 H         1.675264        -1.065523         2.594897
 H         2.636587        -2.225787         0.236293
