19
Iteration:    77charge 0 multiplicity 1
 C        -0.066850        -0.191325        -0.124069
 C         1.434203        -0.048964        -0.070899
 O         2.171791         0.143222        -1.308756
 C         3.281406        -0.268264        -0.389720
 C         3.448412         0.999479         0.473691
 C         2.112728         0.783649         1.208898
 O         1.624972         1.783730         1.968764
 C         2.313160        -0.509773         1.939081
 C         2.339032        -1.130187         0.518517
 H        -0.390268        -0.409359         0.891900
 H        -0.547747         0.738822        -0.374316
 H        -0.424403        -1.004107        -0.737609
 H         4.124547        -0.744979        -0.890986
 H         4.291201         0.883731         1.134309
 H         3.386018         1.842192        -0.222132
 H         0.678074         1.556380         2.083688
 H         3.136413        -0.524284         2.633557
 H         1.456018        -0.800812         2.441618
 H         2.214728        -2.199885         0.283871
