19
Iteration:  3170
 C        -0.133435        -0.396330        -0.031144
 C         1.317759        -0.184958         0.177041
 O         1.987833         0.151186        -1.158849
 C         3.258093        -0.179629        -0.520743
 C         3.357046         1.155925         0.380948
 C         2.164327         0.735147         1.206408
 O         1.631233         1.965497         1.833089
 C         2.490446        -0.587819         1.912431
 C         2.512560        -1.204005         0.514860
 H        -0.674444        -0.515841         0.872951
 H        -0.653696         0.385357        -0.695025
 H        -0.289117        -1.434127        -0.502403
 H         4.108369        -0.547770        -1.114314
 H         4.216865         1.255010         1.110039
 H         3.152925         1.979325        -0.354872
 H         2.106055         2.714353         1.415580
 H         3.360523        -0.687892         2.705287
 H         1.653321        -1.028907         2.453355
 H         2.516753        -2.262917         0.122837
