19
Iteration:  2771charge 0 multiplicity 1
 C        -0.138076        -0.414861         0.102499
 C         1.327681        -0.118309        -0.005366
 O         1.996139         0.140759        -1.346682
 C         3.232126        -0.218958        -0.503288
 C         3.490269         0.963519         0.470067
 C         2.204148         0.855942         1.221969
 O         1.612981         1.854700         1.939937
 C         2.502466        -0.429749         1.903666
 C         2.446311        -1.097443         0.470994
 H        -0.637462        -0.345399         1.020541
 H        -0.666230         0.277914        -0.633274
 H        -0.375381        -1.434287        -0.326730
 H         4.152770        -0.425090        -1.092448
 H         4.399105         0.903198         1.103547
 H         3.649994         1.976171         0.033415
 H         0.741946         1.926359         1.593389
 H         3.435828        -0.413961         2.513792
 H         1.588449        -0.868132         2.421900
 H         2.197093        -2.220741         0.417638
