19
Iteration:  4667charge 0 multiplicity 1
 C        -0.203945        -0.363463         0.109182
 C         1.339923        -0.185037         0.188948
 O         2.104065         0.076439        -1.245074
 C         3.230080        -0.118320        -0.510298
 C         3.447298         1.153195         0.430599
 C         2.085098         0.743420         1.190716
 O         1.517435         1.858422         1.776668
 C         2.524269        -0.593067         1.910282
 C         2.535330        -1.099698         0.450288
 H        -0.592352        -0.263783         1.115715
 H        -0.621640         0.408929        -0.604915
 H        -0.698254        -1.246328        -0.393534
 H         4.144092        -0.473965        -1.165106
 H         4.202194         0.881556         1.238688
 H         3.272367         2.059793        -0.234452
 H         1.923257         2.638865         1.460848
 H         3.536391        -0.516651         2.291182
 H         1.838442        -0.970169         2.624075
 H         2.558611        -2.143243         0.397094
