19
Iteration:  3607charge 0 multiplicity 1
 C        -0.082521        -0.347020         0.027203
 C         1.392400        -0.123419         0.081594
 O         1.979703         0.203080        -1.204061
 C         3.181727        -0.204621        -0.497000
 C         3.403544         1.084244         0.369587
 C         2.219709         0.823710         1.210003
 O         1.572459         1.840345         1.754628
 C         2.597017        -0.568454         1.989784
 C         2.436840        -1.160400         0.587712
 H        -0.646048        -0.666172         0.915467
 H        -0.613418         0.593840        -0.290338
 H        -0.379103        -1.202144        -0.568719
 H         3.907765        -0.779301        -1.176864
 H         4.387890         1.302325         0.833582
 H         3.429004         1.977531        -0.368670
 H         0.614704         1.670773         1.713497
 H         3.611908        -0.805409         2.382764
 H         1.806531        -0.845235         2.708136
 H         2.272547        -2.201368         0.289525
