19
Iteration:  4929
 C        -0.118218        -0.306428         0.153869
 C         1.397118        -0.126177         0.060370
 O         1.977457         0.046732        -1.251819
 C         3.289627        -0.268622        -0.642067
 C         3.417337         1.121118         0.367220
 C         2.112891         0.819619         1.204801
 O         1.401216         1.821979         1.861304
 C         2.576383        -0.469512         1.948304
 C         2.589208        -1.135863         0.504858
 H        -0.364782        -0.421964         1.154204
 H        -0.684409         0.477016        -0.415180
 H        -0.299001        -1.353933        -0.284214
 H         4.187213        -0.555734        -1.161240
 H         4.319446         1.012891         0.869126
 H         3.115180         1.942090        -0.322259
 H         2.057192         2.540739         2.221474
 H         3.418079        -0.425954         2.738701
 H         1.657581        -0.823306         2.494782
 H         2.361265        -2.123925         0.251690
