19
Iteration:  4270
 C        -0.108146        -0.301953         0.019302
 C         1.377782        -0.167138         0.110543
 O         2.015640         0.087859        -1.209875
 C         3.214863        -0.220229        -0.531550
 C         3.399489         1.131577         0.272522
 C         2.187987         0.813401         1.203019
 O         1.488363         1.803516         1.906132
 C         2.536682        -0.525013         1.969965
 C         2.552011        -1.145039         0.564518
 H        -0.603155        -0.351117         1.036505
 H        -0.676207         0.348235        -0.610884
 H        -0.290565        -1.326592        -0.495297
 H         4.056018        -0.520909        -1.120882
 H         4.372075         1.237884         0.893611
 H         3.157908         1.898850        -0.508965
 H         1.528978         2.644658         1.458121
 H         3.538012        -0.423163         2.414364
 H         1.574089        -0.744832         2.461338
 H         2.356651        -2.276601         0.511144
