19
Iteration:  1845
 C        -0.082054        -0.193241        -0.044883
 C         1.411728        -0.095617        -0.047999
 O         2.110737         0.201393        -1.228746
 C         3.299131        -0.171551        -0.518455
 C         3.483435         1.055782         0.543995
 C         2.181681         0.690033         1.251818
 O         1.476317         1.759169         1.976800
 C         2.377725        -0.652282         1.875898
 C         2.359607        -1.125338         0.394369
 H        -0.207145        -0.703014         0.905811
 H        -0.507043         0.861062         0.141567
 H        -0.518046        -0.752967        -0.878864
 H         4.088678        -0.665776        -1.136020
 H         4.359685         0.873326         1.169474
 H         3.518467         2.087277         0.083857
 H         1.619599         2.619830         1.621157
 H         3.125978        -0.910524         2.629036
 H         1.366529        -0.907866         2.358274
 H         2.390926        -2.185853         0.152633
