19
Iteration:  1898
 C        -0.153867         0.020772        -0.202025
 C         1.382705        -0.123871         0.002665
 O         2.104864         0.039994        -1.275933
 C         3.311023        -0.118979        -0.472299
 C         3.425098         1.036195         0.533379
 C         2.174121         0.684662         1.276449
 O         1.463021         1.706341         2.094332
 C         2.541697        -0.580303         1.872714
 C         2.355524        -1.207861         0.451417
 H        -0.679734        -0.063127         0.738048
 H        -0.273264         1.098885        -0.646765
 H        -0.516622        -0.622103        -0.976341
 H         4.251512        -0.090454        -1.098009
 H         4.437733         0.842462         0.939590
 H         3.536745         1.976853        -0.084367
 H         0.691500         2.105025         1.757953
 H         3.670201        -0.640557         2.123561
 H         2.075113        -1.049065         2.835885
 H         2.288543        -2.258835         0.250680
