19
Iteration:  2576charge 0 multiplicity 1
 C        -0.068221        -0.139908         0.171226
 C         1.372185        -0.097358         0.111404
 O         2.119088         0.166289        -1.248499
 C         3.300706        -0.302974        -0.522716
 C         3.473728         1.037376         0.330777
 C         2.152260         0.744499         1.160460
 O         1.414065         1.805194         1.837278
 C         2.545708        -0.570230         1.888493
 C         2.426339        -1.127071         0.454866
 H        -0.350812         0.045323         1.218710
 H        -0.633002         0.645368        -0.448549
 H        -0.644381        -1.126125         0.103801
 H         4.209348        -0.563403        -1.095391
 H         4.218264         0.972616         1.135921
 H         3.297197         1.987698        -0.184114
 H         0.622400         1.319851         2.015716
 H         3.553876        -0.586421         2.296117
 H         1.714098        -0.803193         2.603933
 H         2.063150        -2.185083         0.263521
