19
Iteration:  2668
 C        -0.113735        -0.382154        -0.053674
 C         1.363498        -0.038621         0.131699
 O         2.028627         0.104599        -1.248656
 C         3.276976        -0.185153        -0.453008
 C         3.494615         1.117219         0.224489
 C         2.145471         0.825658         1.164443
 O         1.642308         1.844289         1.896317
 C         2.419498        -0.536949         1.973055
 C         2.349154        -1.138633         0.569927
 H        -0.434947        -1.176392         0.664282
 H        -0.717103         0.439777         0.150139
 H        -0.221241        -0.664740        -1.071910
 H         4.153856        -0.700310        -0.822125
 H         4.418478         1.204178         0.783831
 H         3.173364         1.793551        -0.544994
 H         1.372637         1.393548         2.748573
 H         3.387861        -0.602868         2.423087
 H         1.728972        -0.834584         2.690288
 H         2.185537        -2.181447         0.401650
