19
Iteration:  2619charge 0 multiplicity 1
 C        -0.171026        -0.436945        -0.009416
 C         1.380797        -0.183943         0.059878
 O         1.965578         0.104459        -1.218859
 C         3.245204        -0.122373        -0.584403
 C         3.432907         1.066768         0.497338
 C         2.104829         0.777777         1.231986
 O         1.781929         1.989013         1.847545
 C         2.486207        -0.559180         1.975941
 C         2.437549        -1.105758         0.464389
 H        -0.691199        -0.703938         0.933279
 H        -0.704997         0.570036        -0.364393
 H        -0.407797        -1.184580        -0.871087
 H         4.022375        -0.448543        -1.321372
 H         4.156763         0.617635         1.186823
 H         3.583616         2.070741         0.044336
 H         0.816959         1.984720         1.897061
 H         3.286552        -0.687359         2.762523
 H         1.537334        -0.987401         2.480359
 H         2.458883        -2.174267         0.037730
