19
Iteration:  1745
 C        -0.163039        -0.015014        -0.126694
 C         1.379755        -0.121941        -0.121136
 O         2.099397         0.153055        -1.277385
 C         3.342373        -0.274589        -0.441715
 C         3.458094         1.116385         0.450718
 C         2.091005         0.723642         1.266228
 O         1.412484         1.689311         1.994245
 C         2.582159        -0.557121         1.930049
 C         2.340560        -1.214655         0.487470
 H        -0.531974        -0.096167         0.926113
 H        -0.342488         1.052163        -0.513530
 H        -0.471126        -0.835935        -0.700425
 H         4.342906        -0.638040        -0.743965
 H         4.185015         1.013920         1.261573
 H         3.462872         2.022158        -0.187848
 H         1.886413         1.966967         2.826772
 H         3.610433        -0.870943         2.064895
 H         1.840900        -0.981218         2.639089
 H         2.452031        -2.215786         0.086457
