19
Iteration:  3220
 C        -0.168037        -0.265318         0.204582
 C         1.355863        -0.077080         0.001213
 O         2.068906        -0.011995        -1.299230
 C         3.284880        -0.249603        -0.418162
 C         3.565998         1.095850         0.411604
 C         2.163734         0.871536         1.129118
 O         1.385236         1.754365         1.943238
 C         2.548337        -0.462051         1.786662
 C         2.481120        -1.118026         0.481675
 H        -0.589014        -0.357200         1.296351
 H        -0.498702         0.652987        -0.248066
 H        -0.700136        -0.963812        -0.414796
 H         4.261733        -0.539648        -0.901617
 H         4.409766         0.875486         1.056643
 H         3.579161         1.888667        -0.313854
 H         0.814346         2.356965         1.492392
 H         3.523693        -0.538919         2.165953
 H         1.745586        -0.840096         2.506323
 H         2.410077        -2.181631         0.367662
