19
Iteration:  3617
 C        -0.101750        -0.416881         0.064794
 C         1.370625        -0.084507         0.162140
 O         1.957912         0.172035        -1.180308
 C         3.188758        -0.244739        -0.471366
 C         3.461754         1.112340         0.343824
 C         2.228475         0.743189         1.183275
 O         1.606875         1.895526         1.780609
 C         2.531072        -0.542398         1.901924
 C         2.426745        -1.121068         0.511769
 H        -0.560121        -0.578628         1.024997
 H        -0.541209         0.428301        -0.511106
 H        -0.019671        -1.090538        -0.785962
 H         4.043215        -0.498086        -1.189304
 H         4.245323         0.999745         1.123373
 H         3.293727         2.057428        -0.324734
 H         0.690738         1.656731         1.814702
 H         3.418947        -0.548851         2.587133
 H         1.647414        -0.863761         2.437972
 H         2.485843        -2.208256         0.336041
