19
Iteration:  1011
 C        -0.036483        -0.214278        -0.135073
 C         1.380348        -0.030585         0.047987
 O         2.053299         0.148293        -1.253984
 C         3.292288        -0.280114        -0.492178
 C         3.444988         1.045014         0.378939
 C         2.190901         0.760695         1.293195
 O         1.630923         1.866072         1.976749
 C         2.359365        -0.596916         1.939702
 C         2.313992        -1.138459         0.509403
 H        -0.520948        -0.847423         0.618754
 H        -0.448139         0.764558        -0.448043
 H         0.257526        -0.916451        -0.984596
 H         4.173469        -0.622760        -1.006273
 H         4.429699         0.850600         0.837046
 H         3.450417         2.001129        -0.157704
 H         0.667746         1.660353         2.204873
 H         3.075457        -0.845172         2.823519
 H         1.364945        -0.857817         2.334107
 H         2.268112        -2.173242         0.187180
