19
Iteration:   937
 C        -0.065309        -0.248231        -0.090525
 C         1.395408        -0.038401         0.050635
 O         2.093283         0.180242        -1.236259
 C         3.277375        -0.209981        -0.459905
 C         3.466197         1.057346         0.435576
 C         2.106317         0.734540         1.259654
 O         1.650028         1.889582         1.919803
 C         2.288198        -0.630835         1.883695
 C         2.437459        -1.202317         0.463768
 H        -0.475742        -0.353164         0.899774
 H        -0.483265         0.685847        -0.485576
 H        -0.294326        -1.121536        -0.737814
 H         4.228727        -0.618511        -1.047712
 H         4.295345         1.022035         1.195809
 H         3.588214         1.915769        -0.248534
 H         0.888245         1.692475         2.449651
 H         2.979082        -0.926375         2.681595
 H         1.333913        -0.979873         2.251433
 H         2.193838        -2.191368         0.061813
