19
Iteration:   401
 C        -0.138363         0.040040        -0.064634
 C         1.357313        -0.204975        -0.054117
 O         2.238095         0.161421        -1.286769
 C         3.297156        -0.166165        -0.402992
 C         3.364747         0.996122         0.577357
 C         2.107564         0.680124         1.210047
 O         1.542932         1.734347         1.961503
 C         2.342865        -0.664196         1.854488
 C         2.448610        -1.190962         0.468668
 H        -0.398327        -0.103034         1.026646
 H        -0.320743         1.115171        -0.444600
 H        -0.672524        -0.752561        -0.653612
 H         4.149155        -0.467052        -0.994545
 H         4.263124         1.019933         1.213585
 H         3.245593         1.947978         0.002942
 H         1.659264         2.583640         1.426881
 H         3.182868        -0.557662         2.584891
 H         1.460939        -1.062278         2.381330
 H         2.584497        -2.168051         0.069597
