19
Iteration:   799
 C        -0.128084        -0.407455        -0.127199
 C         1.323037        -0.032402        -0.029964
 O         2.136704         0.322013        -1.264148
 C         3.276101        -0.187601        -0.370003
 C         3.442889         0.961422         0.519774
 C         2.133208         0.740771         1.204864
 O         1.703548         1.896124         1.911240
 C         2.310695        -0.630195         1.893248
 C         2.313060        -1.163229         0.492511
 H        -0.604316        -0.875853         0.802322
 H        -0.790175         0.457723        -0.474406
 H        -0.251819        -1.226773        -0.861498
 H         4.164139        -0.561095        -0.896349
 H         4.386521         1.174524         1.037300
 H         3.267932         1.801007        -0.155225
 H         2.360144         2.025625         2.676832
 H         3.272953        -0.619797         2.451347
 H         1.474190        -1.091135         2.539408
 H         2.232878        -2.158590        -0.001290
