19
Iteration:  1959
 C        -0.081732        -0.285071         0.020298
 C         1.389154        -0.056285        -0.056889
 O         2.064007         0.276928        -1.232112
 C         3.291025        -0.137772        -0.493760
 C         3.475348         0.968012         0.611743
 C         2.158379         0.761502         1.235848
 O         1.536504         1.766345         1.885675
 C         2.282791        -0.723082         1.895029
 C         2.469532        -1.089126         0.366960
 H        -0.435888        -0.052990         1.074880
 H        -0.574156         0.480979        -0.548894
 H        -0.434431        -1.288946        -0.336602
 H         4.153381        -0.318753        -1.132994
 H         4.368981         0.813172         1.288779
 H         3.706606         1.912762         0.114752
 H         1.903344         2.595607         1.591181
 H         3.093361        -1.092457         2.540736
 H         1.365337        -1.042464         2.316368
 H         2.434618        -2.174857         0.155212
