19
Iteration:   451
 C        -0.134262        -0.289002        -0.232094
 C         1.392606         0.013436        -0.018134
 O         2.067595         0.328872        -1.250089
 C         3.255201        -0.269040        -0.497571
 C         3.624286         0.906542         0.592961
 C         2.185894         0.753175         1.234298
 O         1.535229         1.799408         2.020670
 C         2.392382        -0.555120         1.889950
 C         2.300498        -1.144612         0.557491
 H        -0.437573        -0.743233         0.677348
 H        -0.607214         0.626291        -0.478523
 H        -0.211903        -0.973075        -1.060944
 H         3.969663        -0.593406        -1.264724
 H         4.289957         0.347963         1.244584
 H         4.065505         1.816884         0.231968
 H         1.063324         2.344938         1.381433
 H         3.205247        -0.754604         2.562300
 H         1.508364        -1.058667         2.318552
 H         2.316477        -2.258694         0.217490
