19
Iteration:  2780
 C        -0.196096        -0.476713         0.081271
 C         1.355260        -0.146153        -0.009017
 O         2.035678         0.116146        -1.345638
 C         3.270019        -0.153831        -0.535398
 C         3.467836         1.031818         0.438992
 C         2.169725         0.792834         1.218822
 O         1.681145         1.930950         2.016964
 C         2.438971        -0.451017         1.914021
 C         2.403204        -1.102097         0.468250
 H        -0.736308        -0.434466         1.011786
 H        -0.677644         0.297148        -0.599848
 H        -0.318665        -1.436371        -0.438266
 H         4.085366        -0.726639        -1.088722
 H         4.333838         0.772710         1.090736
 H         3.562307         1.974307        -0.173329
 H         0.869480         2.150771         1.588965
 H         3.363234        -0.537117         2.494670
 H         1.658436        -0.658898         2.641802
 H         2.495459        -2.305268         0.280937
