19
Iteration:  2025
 C        -0.113649        -0.097851        -0.102494
 C         1.396801        -0.074647         0.116212
 O         2.081465         0.125649        -1.211471
 C         3.312576        -0.215326        -0.535510
 C         3.483260         1.069573         0.465747
 C         2.202731         0.804095         1.173387
 O         1.441870         1.698979         1.887532
 C         2.426611        -0.644576         1.932987
 C         2.422952        -1.138914         0.482748
 H        -0.833204        -0.706430         0.592468
 H        -0.494685         0.966508         0.104347
 H        -0.421505        -0.461038        -1.151865
 H         4.082738        -0.425949        -1.295206
 H         4.369567         1.095872         1.190803
 H         3.503044         2.013877        -0.135734
 H         1.593892         1.515104         2.852337
 H         3.325286        -0.700161         2.569753
 H         1.565139        -0.991612         2.460928
 H         2.366831        -2.151443         0.068435
