19
Iteration:  2219
 C        -0.070910         0.034014        -0.086669
 C         1.431131        -0.088565         0.058911
 O         2.018500         0.164306        -1.222774
 C         3.329570        -0.286360        -0.390384
 C         3.351613         1.044899         0.364944
 C         2.205766         0.730066         1.244882
 O         1.399972         1.700218         1.899300
 C         2.576127        -0.622504         1.866118
 C         2.417070        -1.151285         0.485318
 H        -0.675384        -0.313832         0.795423
 H        -0.265659         1.092937        -0.244728
 H        -0.296138        -0.679197        -0.971585
 H         4.270471        -0.500448        -0.949032
 H         4.317961         1.121051         0.828554
 H         3.202383         1.891159        -0.291468
 H         1.172507         1.299943         2.788769
 H         3.533102        -0.730373         2.459836
 H         1.742700        -0.929629         2.554098
 H         2.419821        -2.228611         0.159317
