19
Iteration:   161charge 0 multiplicity 1
 C        -0.097526        -0.224053        -0.047353
 C         1.418971        -0.066958        -0.086222
 O         2.137050         0.167525        -1.270782
 C         3.295239        -0.240093        -0.367327
 C         3.533414         0.944768         0.522159
 C         2.161624         0.853907         1.201095
 O         1.480904         1.853752         1.910965
 C         2.354572        -0.572011         1.842459
 C         2.359947        -1.109049         0.441675
 H        -0.371868        -0.589522         0.960829
 H        -0.674759         0.726514        -0.254679
 H        -0.588562        -1.023008        -0.681094
 H         4.019541        -0.731898        -0.991846
 H         4.313220         0.723607         1.345596
 H         3.970111         1.808300        -0.046159
 H         1.153635         1.494169         2.766805
 H         3.268188        -0.977120         2.479063
 H         1.316392        -0.911648         2.238400
 H         2.400958        -2.105727         0.325711
