19
Iteration:  1926
 C        -0.093353        -0.092099        -0.124522
 C         1.391716        -0.026749         0.001982
 O         2.088898         0.240741        -1.178279
 C         3.305306        -0.252219        -0.440313
 C         3.436485         1.012840         0.458437
 C         2.201044         0.727479         1.229127
 O         1.492378         1.659476         2.024026
 C         2.422325        -0.625606         1.885847
 C         2.448822        -1.127613         0.429822
 H        -0.636646         0.049161         0.857443
 H        -0.432868         0.642055        -0.808485
 H        -0.463206        -1.074954        -0.541147
 H         4.161473        -0.466440        -1.077328
 H         4.365789         1.081470         1.080217
 H         3.345304         1.718307        -0.341324
 H         0.773472         2.117909         1.589421
 H         3.345665        -0.887199         2.378302
 H         1.543753        -0.981410         2.340292
 H         2.360290        -2.215406         0.189944
