19
Iteration:  1355charge 0 multiplicity 1
 C        -0.066023        -0.231073        -0.010619
 C         1.442895        -0.063686         0.043836
 O         2.156619         0.314396        -1.227210
 C         3.268954        -0.266643        -0.487604
 C         3.455521         0.972147         0.488473
 C         2.138796         0.747595         1.238724
 O         1.452701         1.822366         1.805188
 C         2.409409        -0.584002         1.993908
 C         2.348016        -1.230468         0.335476
 H        -0.350732        -0.183274         1.050115
 H        -0.518610         0.658010        -0.449166
 H        -0.211857        -1.196497        -0.423790
 H         4.157714        -0.631957        -1.169881
 H         4.294307         1.250374         1.098984
 H         3.333373         1.787945        -0.271910
 H         1.440407         1.783428         2.814117
 H         3.366355        -0.690642         2.500012
 H         1.548880        -0.979939         2.648160
 H         2.225739        -2.325596         0.192919
