19
Iteration:  3081
 C        -0.192642        -0.116628         0.172042
 C         1.426853        -0.176125         0.116142
 O         2.043373         0.025347        -1.196579
 C         3.258969        -0.128498        -0.523612
 C         3.399274         1.023847         0.425008
 C         2.078818         0.736998         1.167612
 O         1.417234         1.833626         1.679219
 C         2.575932        -0.598979         1.961001
 C         2.588791        -1.167732         0.486725
 H        -0.438952        -0.566732         1.164143
 H        -0.452285         0.957940         0.042367
 H        -0.646992        -0.725753        -0.620199
 H         4.162439        -0.235789        -1.175289
 H         4.243542         1.221351         1.157806
 H         3.238825         1.903541        -0.244131
 H         1.960837         2.584249         1.464193
 H         3.595460        -0.480276         2.420864
 H         1.845054        -1.281274         2.511902
 H         2.488705        -2.224886         0.365558
