19
Iteration:  3994charge 0 multiplicity 1
 C        -0.092944        -0.355935        -0.021170
 C         1.404633        -0.142276         0.068388
 O         1.987350        -0.008146        -1.279862
 C         3.261135        -0.218723        -0.481495
 C         3.389623         1.142595         0.332846
 C         2.113239         0.840429         1.157178
 O         1.530084         1.889365         1.962664
 C         2.472203        -0.533906         1.967112
 C         2.522278        -1.129357         0.525779
 H        -0.329520        -0.664041         0.986736
 H        -0.680002         0.523317        -0.003546
 H        -0.265498        -1.091365        -0.792211
 H         4.244254        -0.503243        -0.911564
 H         4.291865         1.135503         0.964825
 H         3.277810         2.017131        -0.361547
 H         2.051844         2.687465         1.707476
 H         3.348679        -0.633669         2.595308
 H         1.530500        -0.740667         2.450906
 H         2.409062        -2.287988         0.327459
