19
Iteration:  4192
 C        -0.049027        -0.305482         0.177110
 C         1.421939        -0.108453         0.079922
 O         2.017402         0.060309        -1.201483
 C         3.276166        -0.159475        -0.517007
 C         3.398880         1.149342         0.414123
 C         2.165046         0.759269         1.095844
 O         1.512089         1.907536         1.705825
 C         2.485220        -0.586081         1.887360
 C         2.456633        -1.161581         0.584206
 H        -0.388051        -0.871781         1.025774
 H        -0.533910         0.581464        -0.127263
 H        -0.457105        -0.992201        -0.726738
 H         4.085519        -0.478957        -1.202226
 H         4.310414         1.102221         1.033746
 H         3.210968         2.121913        -0.228401
 H         1.084804         1.691280         2.540326
 H         3.356929        -0.693809         2.576489
 H         1.578316        -0.883496         2.524543
 H         2.430553        -2.327072         0.319792
