19
Iteration:  1635
 C        -0.043566        -0.387175        -0.085124
 C         1.378102         0.006280         0.034791
 O         2.067341         0.302949        -1.230984
 C         3.293353        -0.213532        -0.494869
 C         3.523304         0.979819         0.505675
 C         2.186996         0.810152         1.177752
 O         1.498492         1.782379         1.940661
 C         2.321690        -0.564270         1.892324
 C         2.396296        -1.197694         0.436857
 H        -0.553504        -0.942898         0.763792
 H        -0.676538         0.560598        -0.018388
 H        -0.309150        -1.007341        -0.951951
 H         4.171726        -0.579843        -1.037169
 H         4.286218         0.588786         1.258413
 H         3.845063         1.894508        -0.036143
 H         2.097093         2.375582         2.427640
 H         3.017822        -0.664785         2.748952
 H         1.331250        -0.836005         2.285598
 H         2.067520        -2.169306         0.064452
