19
Iteration:   536
 C        -0.135090         0.062838        -0.093701
 C         1.355292        -0.007011         0.007546
 O         2.102622         0.230290        -1.233562
 C         3.331313        -0.295591        -0.439573
 C         3.523399         0.897772         0.508084
 C         2.144801         0.762618         1.149544
 O         1.325485         1.667882         1.839275
 C         2.496184        -0.572844         1.921111
 C         2.486575        -1.209858         0.528030
 H        -0.639724        -0.136540         0.916527
 H        -0.563742         1.139912        -0.388170
 H        -0.615703        -0.745919        -0.760886
 H         4.127343        -0.456112        -1.206647
 H         4.331171         0.790196         1.289625
 H         3.827120         1.795238        -0.073273
 H         1.602302         1.365506         2.722246
 H         3.504617        -0.719507         2.490264
 H         1.632908        -0.980918         2.573871
 H         2.514047        -2.296735         0.237819
