19
Iteration:  3805charge 0 multiplicity 1
 C        -0.076925        -0.496818        -0.031415
 C         1.381047        -0.155837         0.047389
 O         1.992784         0.121611        -1.249830
 C         3.196316        -0.184797        -0.502180
 C         3.399601         1.029514         0.360198
 C         2.107123         0.825441         1.182922
 O         1.627992         2.022218         1.842253
 C         2.549586        -0.492565         1.970369
 C         2.424760        -1.166387         0.576881
 H        -0.538203        -0.729345         0.997821
 H        -0.784745         0.404657        -0.219273
 H        -0.308398        -1.224608        -0.758434
 H         4.085808        -0.452445        -1.056700
 H         4.310297         0.920326         1.052835
 H         3.435935         1.949554        -0.259515
 H         1.065396         1.760358         2.587135
 H         3.537524        -0.324845         2.297872
 H         1.891138        -0.929433         2.749859
 H         2.600338        -2.189504         0.345184
