19
Iteration:  2241charge 0 multiplicity 1
 C        -0.078996        -0.010166        -0.002697
 C         1.420697        -0.151473         0.053836
 O         2.059135         0.157600        -1.240453
 C         3.310050        -0.212111        -0.537362
 C         3.460820         1.102234         0.447638
 C         2.114644         0.679609         1.185010
 O         1.470233         1.782291         1.871781
 C         2.445315        -0.640791         1.930059
 C         2.457699        -1.204865         0.455132
 H        -0.459604        -0.609333         0.878091
 H        -0.263627         1.022938         0.208210
 H        -0.447659        -0.510439        -0.950261
 H         4.119813        -0.528086        -1.263506
 H         4.305288         1.178985         1.124512
 H         3.334808         2.042767        -0.080806
 H         1.036085         1.389776         2.618401
 H         3.360657        -0.551732         2.603590
 H         1.633933        -1.130186         2.537533
 H         2.354174        -2.312303         0.307955
