19
Iteration:  4582charge 0 multiplicity 1
 C        -0.086069        -0.277647         0.120754
 C         1.389043        -0.236208         0.052716
 O         2.003056         0.045791        -1.245936
 C         3.279438        -0.177998        -0.506324
 C         3.353038         1.076265         0.350339
 C         2.064336         0.733874         1.166428
 O         1.466475         1.912946         1.782252
 C         2.592452        -0.473104         1.965672
 C         2.524929        -1.141036         0.490761
 H        -0.504529        -0.830475         0.906151
 H        -0.462955         0.792026         0.210212
 H        -0.303628        -0.752597        -0.880952
 H         4.203311        -0.349912        -1.121586
 H         4.217626         1.063371         1.035681
 H         3.382014         2.071609        -0.209859
 H         1.794328         1.793213         2.701053
 H         3.632763        -0.350825         2.430929
 H         1.717079        -0.812695         2.668721
 H         2.403317        -2.235850         0.455898
