19
Iteration:   730
 C        -0.133493         0.058076         0.083034
 C         1.384654        -0.061411        -0.010132
 O         2.265204         0.166441        -1.204733
 C         3.325456        -0.288913        -0.332949
 C         3.512697         1.045769         0.430348
 C         2.119982         0.740800         1.130834
 O         1.413846         1.656937         1.916996
 C         2.427280        -0.613976         1.833707
 C         2.360336        -1.210939         0.425573
 H        -0.667410        -0.088867         0.999834
 H        -0.384396         1.059054        -0.342015
 H        -0.651981        -0.720508        -0.551390
 H         4.194960        -0.582530        -1.112850
 H         4.417603         1.281648         1.069202
 H         3.452417         1.748853        -0.449925
 H         0.485871         1.789542         1.623399
 H         3.448761        -0.744126         2.214506
 H         1.677789        -0.896335         2.554890
 H         2.212923        -2.279539         0.350193
