19
Iteration:   462
 C        -0.065395        -0.253549        -0.206032
 C         1.358047        -0.099005        -0.073760
 O         2.037285         0.333195        -1.228036
 C         3.324530        -0.179011        -0.443311
 C         3.527805         0.846846         0.593014
 C         2.111277         0.791636         1.184202
 O         1.629067         1.797504         1.997588
 C         2.353818        -0.612327         1.954098
 C         2.352700        -1.168099         0.444514
 H        -0.520240        -0.701824         0.646402
 H        -0.672078         0.607207        -0.338801
 H        -0.275362        -0.917338        -1.033421
 H         4.098661        -0.577959        -1.094852
 H         4.279374         0.572143         1.347470
 H         3.796621         1.849383         0.302453
 H         1.269424         2.562885         1.451376
 H         3.232635        -0.529384         2.558383
 H         1.475293        -0.786774         2.595725
 H         2.110443        -2.303178         0.294983
