19
Iteration:  4165charge 0 multiplicity 1
 C        -0.104722        -0.384197         0.056977
 C         1.370098        -0.138256         0.023449
 O         2.024834         0.128393        -1.206436
 C         3.227969        -0.228283        -0.484943
 C         3.459621         1.006978         0.375319
 C         2.122936         0.768665         1.134068
 O         1.450582         1.910504         1.794856
 C         2.529722        -0.471224         1.956446
 C         2.494987        -1.099501         0.510495
 H        -0.478232        -0.891433         1.002176
 H        -0.541506         0.691822         0.069354
 H        -0.492682        -0.980432        -0.671266
 H         4.054789        -0.557340        -1.105640
 H         4.438409         0.939882         0.855415
 H         3.505367         1.804077        -0.278144
 H         1.663395         2.164379         2.680842
 H         3.337789        -0.356043         2.676751
 H         1.962655        -1.012279         2.683152
 H         2.733215        -2.091840         0.273201
