19
Iteration:  2407
 C        -0.081074        -0.052927         0.081183
 C         1.403730        -0.099772         0.064889
 O         2.072056         0.117377        -1.244025
 C         3.253140        -0.211238        -0.529705
 C         3.457647         0.979174         0.475703
 C         2.120813         0.689990         1.115319
 O         1.399920         1.833262         1.861012
 C         2.586284        -0.540402         1.892778
 C         2.461802        -1.234282         0.460307
 H        -0.508645        -0.063465         1.135687
 H        -0.421485         0.927016        -0.212474
 H        -0.495810        -0.792558        -0.589216
 H         4.101420        -0.265229        -1.271096
 H         4.310029         0.695537         1.031151
 H         3.541833         1.903034        -0.109193
 H         0.831692         1.437299         2.557549
 H         3.547114        -0.421527         2.441936
 H         2.006844        -1.003421         2.693751
 H         2.112599        -2.214842         0.189397
