19
Iteration:  1272charge 0 multiplicity 1
 C        -0.177205        -0.196562        -0.082099
 C         1.358583         0.039414         0.039955
 O         2.146575         0.130361        -1.244827
 C         3.346425        -0.225443        -0.411135
 C         3.439696         1.022615         0.483710
 C         2.170965         0.769285         1.227183
 O         1.471562         1.737325         1.951000
 C         2.499960        -0.584290         1.866824
 C         2.368070        -1.170314         0.450891
 H        -0.643552        -0.722217         0.812983
 H        -0.749897         0.722282        -0.469023
 H        -0.353680        -0.879656        -1.023800
 H         4.163287        -0.667101        -0.875592
 H         4.406955         0.888727         1.036717
 H         3.153236         1.872238        -0.161059
 H         1.847461         2.594871         1.837145
 H         3.481341        -0.611363         2.473618
 H         1.710913        -0.999405         2.518103
 H         2.023190        -2.159313         0.125687
