19
Iteration:  3912charge 0 multiplicity 1
 C        -0.060456        -0.213351         0.237572
 C         1.450391        -0.177747         0.039265
 O         1.970321         0.176967        -1.209870
 C         3.269295        -0.197504        -0.490669
 C         3.460644         1.109008         0.341667
 C         2.122374         0.688642         1.151746
 O         1.416405         1.851468         1.627935
 C         2.459926        -0.542860         1.979466
 C         2.580569        -1.202550         0.547798
 H        -0.402090        -0.552662         1.205328
 H        -0.475099         0.644451        -0.330803
 H        -0.442026        -1.079377        -0.350970
 H         3.990443        -0.509814        -1.248744
 H         4.425555         1.236566         0.872412
 H         3.347615         1.975433        -0.353837
 H         1.287102         1.832744         2.618233
 H         3.402968        -0.623214         2.590382
 H         1.651060        -0.938608         2.621574
 H         2.635213        -2.221322         0.465692
