19
Iteration:  4315charge 0 multiplicity 1
 C        -0.122928        -0.406202         0.128121
 C         1.362051        -0.138945         0.027197
 O         2.043737         0.028533        -1.243829
 C         3.221510        -0.134904        -0.505472
 C         3.439906         1.151444         0.353081
 C         2.173101         0.794014         1.208554
 O         1.471772         1.922191         1.787695
 C         2.528499        -0.542190         1.951257
 C         2.467607        -1.180239         0.507645
 H        -0.305215        -0.532503         1.259121
 H        -0.664707         0.457375        -0.277117
 H        -0.533437        -1.262760        -0.410625
 H         4.006394        -0.441869        -1.154876
 H         4.394589         0.982648         0.950130
 H         3.243473         2.077838        -0.150730
 H         1.989664         2.476303         2.344986
 H         3.496569        -0.598667         2.527877
 H         1.621700        -0.939788         2.444679
 H         2.665565        -2.166252         0.185025
