19
Iteration:  2206charge 0 multiplicity 1
 C        -0.176761        -0.012508        -0.112211
 C         1.331903        -0.090397         0.042907
 O         2.064923         0.101564        -1.257302
 C         3.319239        -0.226286        -0.461051
 C         3.543586         1.164072         0.435815
 C         2.136910         0.726660         1.197274
 O         1.436417         1.711788         1.949042
 C         2.587254        -0.640830         1.929549
 C         2.429426        -1.184443         0.472703
 H        -0.666703        -0.112518         0.833261
 H        -0.494719         1.012462        -0.576102
 H        -0.610118        -0.675976        -0.908373
 H         4.038837        -0.787873        -1.028894
 H         4.284971         1.320207         1.199750
 H         3.340267         1.944651        -0.247998
 H         1.250764         1.332866         2.793057
 H         3.613776        -0.631989         2.335824
 H         1.868974        -1.181841         2.602669
 H         2.300259        -2.290354         0.338897
