19
Iteration:  4437
 C        -0.109045        -0.352716         0.091115
 C         1.365401        -0.101844         0.032633
 O         2.006029         0.016878        -1.169730
 C         3.261150        -0.179341        -0.515068
 C         3.367262         1.072742         0.357738
 C         2.201330         0.818497         1.149135
 O         1.413017         1.813574         1.902333
 C         2.622453        -0.502010         1.864320
 C         2.486441        -1.127028         0.536153
 H        -0.482659        -0.331751         1.132890
 H        -0.608712         0.466228        -0.412448
 H        -0.312263        -1.218779        -0.474334
 H         4.109903        -0.371882        -1.223953
 H         4.352539         0.977377         0.932864
 H         3.409519         1.967499        -0.222747
 H         1.752359         2.668009         1.622888
 H         3.619204        -0.328159         2.352290
 H         1.680266        -0.746914         2.360323
 H         2.433190        -2.136889         0.494142
