19
Iteration:  4696
 C         0.002569        -0.335986         0.043804
 C         1.415172        -0.179087         0.068913
 O         1.989558         0.120854        -1.231419
 C         3.292780        -0.229555        -0.487082
 C         3.434132         1.089994         0.268010
 C         2.127390         0.850912         1.143659
 O         1.467281         1.809161         1.983762
 C         2.433431        -0.534222         1.936258
 C         2.494117        -1.123346         0.522409
 H        -0.407275        -0.054581         1.116320
 H        -0.401179         0.491399        -0.514568
 H        -0.391383        -1.311726        -0.151478
 H         4.005046        -0.701064        -1.217252
 H         4.416247         1.224965         0.881353
 H         3.354538         1.859487        -0.477151
 H         1.114074         2.540823         1.452247
 H         3.485332        -0.565356         2.292217
 H         1.598666        -0.814142         2.661562
 H         2.524584        -2.237916         0.444295
