19
Iteration:  3854charge 0 multiplicity 1
 C        -0.129670        -0.391408        -0.026334
 C         1.351192        -0.271737        -0.005286
 O         1.985179         0.010840        -1.221891
 C         3.228084        -0.199862        -0.469887
 C         3.357276         1.125540         0.345691
 C         2.165429         0.821617         1.251550
 O         1.627091         1.954586         1.906301
 C         2.576597        -0.413718         1.959956
 C         2.519622        -1.106459         0.511717
 H        -0.639334        -0.358786         0.899837
 H        -0.546088         0.502208        -0.439910
 H        -0.483136        -1.263875        -0.719200
 H         4.027555        -0.495224        -1.196253
 H         4.282991         1.023205         0.844797
 H         3.360656         1.953804        -0.379481
 H         0.735011         1.747023         2.241153
 H         3.533101        -0.533032         2.610496
 H         1.647929        -0.763045         2.441054
 H         2.474492        -2.243522         0.412135
