19
Iteration:  1402
 C        -0.086289         0.011375         0.030113
 C         1.413737        -0.187376        -0.040808
 O         2.056844         0.052635        -1.287837
 C         3.269185        -0.158017        -0.555873
 C         3.484231         1.047585         0.592589
 C         2.097326         0.692612         1.197397
 O         1.369629         1.807555         1.834842
 C         2.472374        -0.654525         1.890061
 C         2.563279        -1.148768         0.477768
 H        -0.451738        -0.138753         1.028964
 H         0.006453         1.068029         0.035161
 H        -0.479125        -0.584418        -0.818138
 H         4.072127        -0.443671        -1.187289
 H         4.389709         0.807289         1.256976
 H         3.470076         2.108553         0.296323
 H         1.473549         1.810154         2.786002
 H         3.249010        -0.455795         2.607297
 H         1.602129        -1.207928         2.321478
 H         2.278631        -2.187931         0.284892
