19
Iteration:  4603charge 0 multiplicity 1
 C        -0.169477        -0.356305         0.063226
 C         1.339672        -0.121261         0.062146
 O         2.018949         0.051249        -1.230091
 C         3.263314        -0.222833        -0.448443
 C         3.499598         1.127942         0.322518
 C         2.203217         0.847585         1.214582
 O         1.404589         1.824702         1.802299
 C         2.538543        -0.479158         1.886374
 C         2.503365        -1.145852         0.520871
 H        -0.181703        -0.806966         1.026373
 H        -0.707276         0.633878         0.291064
 H        -0.636159        -1.022163        -0.748158
 H         4.171978        -0.649856        -1.043992
 H         4.331404         1.199854         1.079244
 H         3.399338         2.000767        -0.461620
 H         1.920907         2.177078         2.584271
 H         3.603894        -0.543110         2.287600
 H         1.611857        -0.799987         2.505543
 H         2.567498        -2.226973         0.333455
