19
Iteration:  2126
 C        -0.073281        -0.385096        -0.015824
 C         1.341565        -0.026888        -0.031733
 O         2.026648         0.316807        -1.232734
 C         3.252066        -0.166550        -0.422878
 C         3.537518         0.904848         0.588847
 C         2.089252         0.767555         1.180307
 O         1.662604         1.907257         1.907370
 C         2.347627        -0.685011         1.887846
 C         2.472179        -1.140267         0.361525
 H        -0.608164        -0.393828         0.986393
 H        -0.892925         0.367357        -0.524066
 H        -0.322561        -1.350560        -0.439862
 H         3.936344        -0.494545        -1.211540
 H         4.377450         0.754775         1.341110
 H         3.666946         1.963631         0.144850
 H         0.726727         1.940985         1.673966
 H         3.349302        -0.601226         2.321132
 H         1.740169        -1.028454         2.741105
 H         2.408620        -2.175042         0.066882
