19
Iteration:  2980
 C        -0.196161        -0.495194        -0.205599
 C         1.366382        -0.206569         0.089733
 O         1.934249         0.067992        -1.309503
 C         3.230895        -0.218385        -0.476831
 C         3.352955         1.065775         0.353915
 C         2.128782         0.860084         1.279946
 O         1.786155         1.921514         2.029926
 C         2.517965        -0.482782         1.962509
 C         2.457913        -1.052333         0.579757
 H        -0.820013        -0.527473         0.742892
 H        -0.416808         0.355300        -0.788784
 H        -0.347397        -1.402591        -0.777530
 H         4.157498        -0.458967        -0.926384
 H         4.283970         1.154363         0.947743
 H         3.235445         1.917194        -0.350487
 H         1.663740         2.764076         1.513430
 H         3.330435        -0.547044         2.631996
 H         1.641795        -0.864128         2.545613
 H         2.448019        -2.091503         0.413570
