19
Iteration:  1227charge 0 multiplicity 1
 C        -0.059772         0.031447         0.114504
 C         1.455103        -0.125891         0.089495
 O         2.094295         0.177469        -1.201143
 C         3.363986        -0.192995        -0.476802
 C         3.439441         0.984333         0.470029
 C         2.127858         0.682020         1.217055
 O         1.454043         1.733908         1.787007
 C         2.330334        -0.656030         1.872734
 C         2.525705        -1.159321         0.440689
 H        -0.411497        -0.218753         1.153043
 H        -0.248529         1.053286        -0.317148
 H        -0.592660        -0.657340        -0.625680
 H         4.143818        -0.189669        -1.189442
 H         4.265081         1.008544         1.248384
 H         3.294872         1.826180        -0.248448
 H         0.702470         1.796237         1.223171
 H         3.037866        -0.855256         2.710560
 H         1.349736        -1.093893         2.172562
 H         2.506898        -2.237737         0.241800
