19
Iteration:  1241charge 0 multiplicity 1
 C        -0.003787        -0.024335         0.065693
 C         1.435202        -0.176627        -0.044291
 O         2.017752         0.216236        -1.222337
 C         3.353803        -0.177189        -0.480579
 C         3.496258         0.990374         0.502591
 C         2.118912         0.725793         1.151829
 O         1.400126         1.738575         1.889829
 C         2.366531        -0.592489         1.899879
 C         2.540510        -1.292429         0.469387
 H        -0.546842        -0.124593         1.046777
 H        -0.216692         1.120552        -0.064591
 H        -0.606084        -0.645454        -0.717071
 H         4.131358        -0.701991        -1.014720
 H         4.474699         0.852738         1.060167
 H         3.502982         2.002762         0.089421
 H         0.797079         2.327186         1.321606
 H         3.219673        -0.454764         2.722043
 H         1.416634        -0.955789         2.349135
 H         2.459265        -2.362192         0.224937
