19
Iteration:  4241
 C        -0.091475        -0.258621         0.054176
 C         1.381733        -0.161179         0.074073
 O         1.998199         0.025973        -1.195812
 C         3.217843        -0.184111        -0.466450
 C         3.436161         1.101197         0.334253
 C         2.153838         0.773925         1.163105
 O         1.498658         1.823891         1.875123
 C         2.568353        -0.493389         1.899041
 C         2.512840        -1.117072         0.518696
 H        -0.427878        -0.533783         1.096391
 H        -0.645099         0.527356        -0.556279
 H        -0.380082        -1.144399        -0.468367
 H         4.094630        -0.515192        -1.029788
 H         4.276941         0.992491         1.034079
 H         3.454979         1.931995        -0.308854
 H         0.664597         2.223192         1.538110
 H         3.617875        -0.342699         2.337748
 H         1.871602        -0.774660         2.737602
 H         2.377690        -2.114368         0.301900
