19
Iteration:  3652
 C        -0.090280        -0.486145         0.075859
 C         1.299247        -0.228407        -0.030135
 O         2.028351         0.125129        -1.377679
 C         3.210820        -0.141751        -0.471354
 C         3.382367         1.059922         0.400701
 C         2.154962         0.807450         1.222007
 O         1.717201         2.022690         1.869485
 C         2.454339        -0.530862         1.943974
 C         2.429160        -1.125003         0.474661
 H        -0.371183        -0.742816         1.123309
 H        -0.641597         0.457402        -0.220764
 H        -0.462888        -1.374079        -0.276444
 H         4.146701        -0.518180        -1.002155
 H         4.296138         0.965524         1.078960
 H         3.368804         2.155598         0.189760
 H         1.198916         1.786568         2.632876
 H         3.281397        -0.470873         2.648177
 H         1.536164        -0.939160         2.476894
 H         2.640935        -2.158705         0.545688
