19
Iteration:    72charge 0 multiplicity 1
 C         0.004967        -0.164215        -0.076378
 C         1.420253        -0.031941        -0.048693
 O         2.131565         0.155754        -1.320951
 C         3.274675        -0.285135        -0.352835
 C         3.464460         1.014376         0.445732
 C         2.151720         0.748806         1.203441
 O         1.601757         1.763775         1.939982
 C         2.250852        -0.512718         1.946213
 C         2.356743        -1.127696         0.517025
 H        -0.425859        -0.462987         0.906223
 H        -0.430907         0.790341        -0.486124
 H        -0.163959        -1.033756        -0.771197
 H         4.102492        -0.718469        -0.930576
 H         4.368353         1.037512         1.137882
 H         3.398808         1.800091        -0.329014
 H         0.704299         1.486439         2.140053
 H         3.154496        -0.487884         2.621869
 H         1.274902        -0.875621         2.481018
 H         2.215181        -2.161894         0.182764
