19
Iteration:  2427
 C        -0.119321        -0.201680         0.066471
 C         1.382731        -0.127243         0.057886
 O         1.993702         0.215717        -1.205195
 C         3.287814        -0.196844        -0.462082
 C         3.469903         1.024359         0.457808
 C         2.151540         0.734165         1.272517
 O         1.540353         1.896439         1.716878
 C         2.518369        -0.674920         1.877403
 C         2.445670        -1.143268         0.452477
 H        -0.550278        -0.485921         1.080934
 H        -0.548794         0.767804         0.044932
 H        -0.595257        -0.799928        -0.738327
 H         4.028300        -0.679888        -1.207904
 H         4.315786         1.056573         1.175379
 H         3.572188         1.911120        -0.224772
 H         0.858846         1.629328         2.316071
 H         3.408462        -0.892769         2.518016
 H         1.713511        -1.257306         2.402206
 H         2.619537        -2.229032         0.242020
