19
Iteration:  3038charge 0 multiplicity 1
 C        -0.045877        -0.246489         0.125490
 C         1.404688        -0.057917         0.113548
 O         2.071502         0.148911        -1.207113
 C         3.245496        -0.236616        -0.544832
 C         3.459120         1.038256         0.290629
 C         2.149921         0.740635         1.182365
 O         1.440867         1.747944         1.805437
 C         2.463764        -0.523630         1.984451
 C         2.459803        -1.154100         0.557103
 H        -0.266708        -0.494944         1.180366
 H        -0.751846         0.605338        -0.057374
 H        -0.378852        -1.122607        -0.440828
 H         4.078393        -0.594137        -1.211329
 H         4.506166         1.137727         0.744654
 H         3.336557         1.947506        -0.356385
 H         1.342827         2.582674         1.326664
 H         3.449133        -0.333431         2.495398
 H         1.519377        -0.830334         2.473621
 H         2.328992        -2.194884         0.242038
