19
Iteration:  3388
 C        -0.175982        -0.176880         0.038612
 C         1.349240        -0.133974         0.140788
 O         2.073557         0.096752        -1.213990
 C         3.248940        -0.214515        -0.466150
 C         3.437805         1.098209         0.312618
 C         2.207331         0.777236         1.192338
 O         1.429891         1.758768         1.830551
 C         2.590312        -0.567287         2.015025
 C         2.517857        -1.145181         0.497493
 H        -0.591052        -0.354366         1.003009
 H        -0.554538         0.809569        -0.373176
 H        -0.683253        -1.010437        -0.619256
 H         4.034624        -0.526022        -1.099007
 H         4.420182         1.241446         0.809634
 H         3.143776         1.838263        -0.455357
 H         1.294732         2.357423         1.111610
 H         3.596741        -0.529404         2.552537
 H         1.955180        -1.192524         2.573941
 H         2.229429        -2.198054         0.341623
