19
Iteration:  2663charge 0 multiplicity 1
 C        -0.114020        -0.438807        -0.056142
 C         1.332738        -0.089319         0.109877
 O         2.053777         0.128072        -1.214944
 C         3.237636        -0.190648        -0.446718
 C         3.470845         1.093565         0.251521
 C         2.164199         0.814514         1.129592
 O         1.674879         1.879927         1.906703
 C         2.462066        -0.535126         1.965972
 C         2.342129        -1.123602         0.540715
 H        -0.451631        -1.213372         0.671795
 H        -0.747264         0.524538         0.097694
 H        -0.080752        -0.644703        -1.188244
 H         4.114478        -0.633042        -0.982784
 H         4.333171         1.335268         0.927045
 H         3.171346         1.856733        -0.524389
 H         1.354526         1.613268         2.776169
 H         3.398816        -0.653921         2.600387
 H         1.619638        -0.746992         2.759125
 H         1.894110        -2.146813         0.326177
