19
Iteration:  2088charge 0 multiplicity 1
 C        -0.117820        -0.136326        -0.028981
 C         1.424811        -0.073227         0.044115
 O         2.021089         0.194978        -1.198442
 C         3.255288        -0.170946        -0.426807
 C         3.502421         1.103025         0.453023
 C         2.239569         0.726576         1.221637
 O         1.553825         1.776392         1.861465
 C         2.362078        -0.677608         1.911325
 C         2.438371        -1.206218         0.459118
 H        -0.433923        -0.706564         0.825618
 H        -0.525431         0.790802        -0.118228
 H        -0.283206        -0.572070        -1.033298
 H         4.085032        -0.613299        -0.988655
 H         4.387150         1.225980         1.047916
 H         3.310911         1.855655        -0.268187
 H         0.596307         1.442205         1.971642
 H         3.315976        -0.736361         2.448964
 H         1.501927        -1.058012         2.462348
 H         2.600130        -2.169438        -0.080736
