19
Iteration:  2862
 C        -0.114537        -0.195138         0.152083
 C         1.404733        -0.153619         0.166196
 O         2.043299         0.091989        -1.221521
 C         3.233746        -0.212346        -0.506840
 C         3.475692         1.072720         0.384406
 C         2.148466         0.801341         1.108068
 O         1.354343         1.806592         1.729415
 C         2.575620        -0.509165         1.958042
 C         2.456829        -1.199014         0.459940
 H        -0.558740        -0.764199         1.059897
 H        -0.447759         0.815334         0.045936
 H        -0.319172        -0.748605        -0.768193
 H         4.022566        -0.664696        -1.071197
 H         4.414037         1.055410         1.020177
 H         3.576448         1.892565        -0.365724
 H         1.784326         2.160854         2.553988
 H         3.635612        -0.387535         2.298767
 H         1.921762        -1.039023         2.747328
 H         2.436108        -2.176541         0.154687
