19
Iteration:  3331
 C        -0.136856        -0.415496         0.146932
 C         1.348796        -0.031431         0.138188
 O         2.071860         0.109901        -1.224975
 C         3.307659        -0.203433        -0.520350
 C         3.480258         1.082180         0.261868
 C         2.199112         0.808798         1.170894
 O         1.504804         1.850581         1.877911
 C         2.361814        -0.531378         1.900221
 C         2.457252        -1.137518         0.508925
 H        -0.520219        -0.771743         1.155240
 H        -0.909707         0.281561        -0.210095
 H         0.113442        -1.178431        -0.705381
 H         4.122536        -0.536300        -1.201668
 H         4.446863         1.272287         0.830555
 H         3.320460         1.899455        -0.445501
 H         2.147478         2.648138         1.842502
 H         3.061499        -0.834220         2.713404
 H         1.387972        -0.945143         2.224683
 H         2.389709        -2.280706         0.542529
