19
Iteration:  3711
 C        -0.130244        -0.248999        -0.036288
 C         1.340806        -0.153191         0.087053
 O         1.919969         0.040613        -1.177776
 C         3.250146        -0.177606        -0.555486
 C         3.434398         1.067005         0.386028
 C         2.199565         0.802572         1.185494
 O         1.519047         1.825679         1.788818
 C         2.664187        -0.482581         2.002653
 C         2.494586        -1.142388         0.557083
 H        -0.575697        -0.302802         0.942157
 H        -0.419933         0.764162        -0.255868
 H        -0.549378        -0.820264        -0.910769
 H         3.948227        -0.500632        -1.309550
 H         4.335199         1.048112         0.998764
 H         3.251357         2.000416        -0.087129
 H         0.765072         1.228286         2.096194
 H         3.665239        -0.301133         2.464978
 H         1.930466        -0.892619         2.734915
 H         2.589259        -2.282765         0.500947
