19
Iteration:  3306charge 0 multiplicity 1
 C        -0.060991        -0.430554         0.028468
 C         1.373165        -0.166874         0.009367
 O         1.994834         0.152070        -1.247281
 C         3.247972        -0.239917        -0.465770
 C         3.388577         1.033285         0.382240
 C         2.157140         0.801145         1.180442
 O         1.515447         1.893576         1.886347
 C         2.558368        -0.442484         1.965868
 C         2.353459        -1.121666         0.494895
 H        -0.345117        -0.787903         1.114420
 H        -0.603610         0.515627        -0.129279
 H        -0.229854        -1.145817        -0.767856
 H         4.078991        -0.652817        -1.128750
 H         4.325203         0.982072         0.972973
 H         3.489000         1.936473        -0.240449
 H         2.240204         2.572757         1.833569
 H         3.516143        -0.605919         2.403809
 H         1.765504        -0.761605         2.736890
 H         2.381420        -2.196003         0.304199
