19
Iteration:  3238
 C        -0.079807        -0.128314         0.140767
 C         1.395158        -0.083456         0.034086
 O         2.106251         0.035585        -1.280600
 C         3.322250        -0.247525        -0.504714
 C         3.395909         1.069491         0.275604
 C         2.118501         0.749258         1.163937
 O         1.425363         1.687508         1.898362
 C         2.554715        -0.466263         1.995577
 C         2.458740        -1.112326         0.506336
 H        -0.311086        -0.453082         1.142828
 H        -0.835376         0.666215         0.040943
 H        -0.482383        -0.977945        -0.432319
 H         4.107508        -0.688492        -1.084063
 H         4.172830         1.259090         1.016328
 H         3.275900         1.984127        -0.368875
 H         1.034544         2.350419         1.345074
 H         3.462476        -0.377540         2.662225
 H         1.755860        -0.767033         2.678119
 H         2.338072        -2.164847         0.245787
