19
Iteration:  1961
 C        -0.101415        -0.295235         0.022379
 C         1.392979        -0.042262        -0.055802
 O         2.054570         0.265457        -1.236368
 C         3.297564        -0.135938        -0.468997
 C         3.470711         0.944485         0.621326
 C         2.157357         0.776407         1.251523
 O         1.536490         1.765283         1.872469
 C         2.296719        -0.718284         1.868105
 C         2.468620        -1.081691         0.353143
 H        -0.403616        -0.083657         1.061162
 H        -0.611131         0.497731        -0.553898
 H        -0.403508        -1.257907        -0.324881
 H         4.178134        -0.273708        -1.099359
 H         4.389007         0.796056         1.237447
 H         3.708165         1.929536         0.175218
 H         1.978530         2.563202         1.614459
 H         3.083096        -1.073452         2.580809
 H         1.371634        -1.041026         2.330378
 H         2.464245        -2.136648         0.170938
