19
Iteration:  2691charge 0 multiplicity 1
 C        -0.117704        -0.184723         0.055482
 C         1.372648        -0.178739        -0.002760
 O         2.048942        -0.000545        -1.258560
 C         3.232651        -0.230451        -0.525657
 C         3.429735         1.052909         0.384003
 C         2.170015         0.837855         1.193200
 O         1.481741         1.869118         1.907459
 C         2.554820        -0.468420         1.909478
 C         2.519369        -1.151407         0.487712
 H        -0.458553        -0.802447         0.875671
 H        -0.392497         0.845158         0.269274
 H        -0.533560        -0.502665        -0.864287
 H         4.096200        -0.594546        -1.099343
 H         4.232089         1.034621         1.096492
 H         3.237413         1.845946        -0.321028
 H         1.129324         1.461053         2.679932
 H         3.350893        -0.569737         2.647920
 H         1.661121        -0.742487         2.402198
 H         2.257545        -2.215859         0.377345
