19
Iteration:  3967
 C        -0.111687        -0.385417         0.010786
 C         1.402303        -0.139048         0.053571
 O         2.067066         0.108617        -1.181463
 C         3.247263        -0.246388        -0.453658
 C         3.377263         1.087697         0.277639
 C         2.137557         0.808161         1.139483
 O         1.476174         1.822285         1.844106
 C         2.528861        -0.473180         1.973314
 C         2.456114        -1.090903         0.555399
 H        -0.350233        -0.839387         1.028740
 H        -0.682424         0.613040         0.009032
 H        -0.434500        -1.039588        -0.848314
 H         4.134999        -0.591732        -0.951619
 H         4.366386         1.197768         0.781645
 H         3.181952         1.898915        -0.423176
 H         2.234677         2.285383         2.305660
 H         3.558339        -0.656490         2.363066
 H         1.592701        -0.637099         2.548115
 H         2.254656        -2.077683         0.376578
