19
Iteration:  3629
 C        -0.079805        -0.429347         0.036913
 C         1.355243        -0.102211         0.138465
 O         1.931042         0.105283        -1.136764
 C         3.298622        -0.143585        -0.526067
 C         3.477770         0.983069         0.372757
 C         2.098563         0.823598         1.175373
 O         1.650907         1.961152         1.834761
 C         2.448839        -0.504628         1.881262
 C         2.507974        -1.147039         0.434682
 H        -0.550116        -0.782680         0.972028
 H        -0.755730         0.374167        -0.346309
 H        -0.213326        -1.376179        -0.427208
 H         4.097120        -0.550133        -1.247958
 H         4.457311         1.036329         0.910497
 H         3.458147         2.030125        -0.132528
 H         0.752576         1.856179         2.198101
 H         3.273084        -0.464920         2.623810
 H         1.552878        -0.949489         2.356966
 H         2.341646        -2.205664         0.235324
