19
Iteration:  3769charge 0 multiplicity 1
 C        -0.049742        -0.321959         0.260565
 C         1.406227        -0.073692         0.045899
 O         2.063357         0.063415        -1.292646
 C         3.262938        -0.137539        -0.476979
 C         3.418118         1.083294         0.334545
 C         2.163764         0.792724         1.139821
 O         1.512613         1.843454         1.756786
 C         2.380689        -0.509181         1.951747
 C         2.477584        -1.167165         0.506177
 H        -0.302732        -0.673864         1.250076
 H        -0.417378         0.651567        -0.052523
 H        -0.365928        -1.177476        -0.447659
 H         4.102686        -0.445791        -1.181283
 H         4.387666         1.050964         0.858946
 H         3.390463         2.007334        -0.349604
 H         0.867510         1.387641         2.284317
 H         3.233551        -0.501861         2.669930
 H         1.553009        -0.788095         2.563777
 H         2.627189        -2.233659         0.298969
