19
Iteration:  2767
 C        -0.116626        -0.380491         0.055935
 C         1.349193        -0.095744         0.026219
 O         1.982298         0.141389        -1.297802
 C         3.223893        -0.236322        -0.489313
 C         3.513589         0.977667         0.450541
 C         2.194279         0.871969         1.194119
 O         1.578491         1.833282         1.901634
 C         2.512310        -0.483113         1.904844
 C         2.453694        -1.086190         0.491985
 H        -0.434524        -0.255182         1.180663
 H        -0.687754         0.299868        -0.567400
 H        -0.337053        -1.405362        -0.182725
 H         4.075810        -0.384611        -1.187200
 H         4.373629         0.791547         1.122424
 H         3.581981         1.964010        -0.048131
 H         0.607144         1.931119         1.651191
 H         3.399419        -0.450258         2.516656
 H         1.696866        -0.929982         2.367037
 H         2.198360        -2.184435         0.343722
