19
Iteration:   129
 C        -0.045514        -0.225975        -0.275569
 C         1.400765        -0.079315         0.080405
 O         2.100941         0.238720        -1.135717
 C         3.247680        -0.169193        -0.501687
 C         3.379912         0.994197         0.447748
 C         2.117055         0.661849         1.289730
 O         1.715714         1.896040         1.793954
 C         2.351086        -0.636348         2.013147
 C         2.367610        -1.180133         0.550134
 H        -0.632886        -0.684628         0.512282
 H        -0.590310         0.679845        -0.602821
 H        -0.009268        -0.899403        -1.141481
 H         3.986002        -0.364483        -1.265871
 H         4.239520         0.965798         1.214990
 H         3.333783         1.985257        -0.075751
 H         0.916341         1.645941         2.350508
 H         3.196708        -0.939507         2.722300
 H         1.445721        -0.966165         2.558345
 H         2.241520        -2.171803         0.422654
