19
Iteration:   990charge 0 multiplicity 1
 C        -0.130479        -0.393649        -0.322950
 C         1.288184        -0.069725         0.022457
 O         2.047102         0.248561        -1.151049
 C         3.224919        -0.229831        -0.473582
 C         3.498701         0.949085         0.469978
 C         2.157376         0.803121         1.187336
 O         1.785477         1.922132         2.010630
 C         2.319882        -0.535130         1.924613
 C         2.392978        -1.149507         0.571126
 H        -0.585327        -0.947002         0.506604
 H        -0.595083         0.597335        -0.538041
 H        -0.136716        -1.140902        -1.219162
 H         4.114976        -0.610865        -1.072764
 H         4.397107         1.061567         1.124530
 H         3.412740         1.842240        -0.176278
 H         1.056403         1.459241         2.395795
 H         3.310123        -0.656975         2.509095
 H         1.436606        -0.879852         2.463542
 H         2.262323        -2.154898         0.186107
