19
Iteration:   236charge 0 multiplicity 1
 C        -0.096142        -0.064908        -0.181468
 C         1.384989        -0.053302         0.079093
 O         2.055041         0.167666        -1.234539
 C         3.244404        -0.242806        -0.490928
 C         3.471637         0.913716         0.523487
 C         2.153689         0.699963         1.258269
 O         1.510510         1.781251         1.878364
 C         2.548946        -0.611878         1.962771
 C         2.413831        -1.067121         0.501669
 H        -0.817857        -0.459848         0.576879
 H        -0.399053         0.974004        -0.560105
 H        -0.307375        -0.882205        -0.945099
 H         4.140581        -0.376386        -1.081673
 H         4.305402         0.622154         1.203063
 H         3.586558         1.906516         0.102797
 H         0.567793         1.605975         1.838530
 H         3.552815        -0.525400         2.452948
 H         1.636804        -1.048289         2.469405
 H         2.239619        -2.101170         0.283465
