19
Iteration:  4299charge 0 multiplicity 1
 C        -0.126224        -0.371153         0.126201
 C         1.385763        -0.274844         0.040421
 O         1.961437         0.043311        -1.317703
 C         3.286984        -0.184264        -0.489974
 C         3.368273         1.110456         0.449947
 C         2.138311         0.840786         1.203329
 O         1.512471         1.883126         1.841381
 C         2.515822        -0.504112         1.889650
 C         2.545675        -1.090485         0.495631
 H        -0.583997        -0.284500         1.046292
 H        -0.633935         0.502364        -0.348422
 H        -0.338663        -1.324946        -0.391851
 H         4.224198        -0.501220        -1.051406
 H         4.219553         1.321090         1.085242
 H         3.402681         2.019953        -0.235329
 H         2.286416         2.428385         2.029320
 H         3.480731        -0.453893         2.357622
 H         1.694885        -0.814886         2.539993
 H         2.288536        -2.256793         0.473351
