19
Iteration:  2062charge 0 multiplicity 1
 C        -0.139393        -0.038997        -0.031155
 C         1.414998        -0.129745        -0.005251
 O         2.150812         0.106252        -1.294045
 C         3.329715        -0.239426        -0.492567
 C         3.331843         1.056903         0.485692
 C         2.121693         0.725950         1.179215
 O         1.475831         1.795756         1.932713
 C         2.503137        -0.621432         1.911961
 C         2.467493        -1.174178         0.490086
 H        -0.617139        -0.592031         0.754122
 H        -0.167459         1.103159         0.232106
 H        -0.568146         0.004715        -1.000436
 H         4.231317        -0.570353        -1.019246
 H         4.056652         1.323660         1.266410
 H         3.146690         1.841195        -0.278600
 H         1.118452         1.307480         2.739527
 H         3.509914        -0.702790         2.364690
 H         1.695218        -1.125092         2.544835
 H         2.224758        -2.194477         0.187955
