19
Iteration:   168charge 0 multiplicity 1
 C        -0.110383        -0.175578         0.010610
 C         1.362564        -0.033490        -0.100036
 O         2.209602         0.073338        -1.319121
 C         3.315176        -0.172041        -0.444155
 C         3.509016         0.960905         0.587172
 C         2.132238         0.875960         1.201540
 O         1.476058         1.855509         1.908381
 C         2.360846        -0.630343         1.831452
 C         2.336145        -1.119559         0.455086
 H        -0.256076        -0.480574         1.076926
 H        -0.686651         0.756488        -0.146284
 H        -0.476833        -1.027754        -0.599470
 H         4.200543        -0.659750        -0.899668
 H         4.195306         0.593449         1.320125
 H         3.886475         1.829574         0.089111
 H         1.170398         1.606516         2.761532
 H         3.264029        -0.827289         2.349972
 H         1.479799        -1.057774         2.371301
 H         2.392689        -2.274139         0.208149
