19
Iteration:   370
 C        -0.045783         0.083054        -0.106003
 C         1.433594        -0.070335         0.030414
 O         2.079920         0.068543        -1.267703
 C         3.289634        -0.226923        -0.460093
 C         3.497233         1.003498         0.544283
 C         2.143337         0.747140         1.210550
 O         1.327402         1.708131         1.928609
 C         2.407681        -0.678774         1.854554
 C         2.485169        -1.182676         0.483907
 H        -0.559619        -0.013440         0.912158
 H        -0.280928         1.157489        -0.466348
 H        -0.403018        -0.791365        -0.716047
 H         4.131679        -0.522053        -1.129327
 H         4.405298         0.954802         1.204554
 H         3.558493         2.006204         0.033029
 H         1.858484         2.313272         2.425381
 H         3.295291        -0.668540         2.592196
 H         1.449094        -1.075147         2.241417
 H         2.495524        -2.119146         0.107445
