19
Iteration:   192charge 0 multiplicity 1
 C        -0.070104        -0.046346         0.068583
 C         1.430642        -0.080270        -0.003778
 O         2.194801         0.135740        -1.333138
 C         3.387552        -0.199656        -0.429145
 C         3.354134         1.010545         0.543551
 C         2.083234         0.678842         1.230860
 O         1.530720         1.816092         1.797567
 C         2.325329        -0.648948         1.970502
 C         2.432877        -1.171683         0.363116
 H        -0.477411        -0.146646         1.109321
 H        -0.335927         1.013327        -0.262748
 H        -0.626140        -0.821341        -0.552658
 H         4.191592        -0.671616        -0.970529
 H         4.154823         1.186029         1.278299
 H         3.171222         1.853893        -0.119266
 H         1.118504         1.736142         2.654969
 H         3.237964        -0.779827         2.605096
 H         1.365908        -1.140917         2.350627
 H         2.282856        -2.188429         0.012759
