19
Iteration:  1179charge 0 multiplicity 1
 C        -0.133205        -0.223283        -0.157976
 C         1.380538        -0.071812         0.023941
 O         2.139930         0.228649        -1.170459
 C         3.241596        -0.280738        -0.475918
 C         3.486821         0.953225         0.504080
 C         2.051794         0.743413         1.171264
 O         1.593304         1.866315         1.909527
 C         2.440070        -0.563116         1.894856
 C         2.406680        -1.111763         0.455417
 H        -0.510302        -0.438667         0.804614
 H        -0.542603         0.637601        -0.596515
 H        -0.359702        -1.068683        -0.731835
 H         4.101486        -0.812955        -1.027424
 H         4.257660         0.628438         1.202051
 H         3.526011         1.964967         0.096547
 H         1.113224         1.565097         2.740012
 H         3.302156        -0.484813         2.490034
 H         1.603379        -0.899504         2.481577
 H         2.296273        -2.172264         0.196158
