19
Iteration:  4108
 C        -0.086028        -0.267161         0.051375
 C         1.393669        -0.211842         0.041128
 O         2.022434         0.081703        -1.245471
 C         3.294793        -0.224396        -0.507818
 C         3.350561         1.134222         0.360562
 C         2.101595         0.778343         1.175285
 O         1.479752         1.852752         1.876867
 C         2.524452        -0.533803         2.007551
 C         2.501992        -1.208351         0.512017
 H        -0.363404        -0.222481         1.137994
 H        -0.537223         0.705589        -0.241705
 H        -0.419909        -1.109937        -0.585816
 H         4.229885        -0.352086        -1.034316
 H         4.221278         1.248602         1.021622
 H         3.280341         1.855849        -0.418183
 H         1.785109         2.762565         1.606390
 H         3.553049        -0.445145         2.464505
 H         1.599893        -0.991267         2.316399
 H         2.642560        -2.235925         0.423070
