19
Iteration:  3630
 C        -0.080662        -0.435177         0.037101
 C         1.359817        -0.108217         0.125620
 O         1.932310         0.104439        -1.140254
 C         3.299312        -0.140943        -0.534642
 C         3.473332         0.981694         0.379773
 C         2.092351         0.830118         1.178296
 O         1.655689         1.965834         1.837313
 C         2.444987        -0.503425         1.885410
 C         2.514899        -1.147265         0.440972
 H        -0.554873        -0.768934         0.998953
 H        -0.769301         0.364464        -0.338953
 H        -0.236015        -1.357636        -0.429227
 H         4.080755        -0.552424        -1.253633
 H         4.454586         1.038224         0.899402
 H         3.490259         1.999729        -0.136488
 H         0.745974         1.858332         2.230611
 H         3.275109        -0.485026         2.607879
 H         1.535433        -0.966496         2.374367
 H         2.333406        -2.186803         0.214882
