19
Iteration:  3803
 C        -0.087800        -0.502664        -0.004600
 C         1.366515        -0.141411         0.030541
 O         1.997944         0.116397        -1.250466
 C         3.210649        -0.190534        -0.497651
 C         3.413941         1.038021         0.363738
 C         2.099261         0.822929         1.182534
 O         1.616064         2.022988         1.849141
 C         2.547058        -0.490663         1.970107
 C         2.423462        -1.174953         0.567306
 H        -0.491777        -0.726488         1.007651
 H        -0.730442         0.397685        -0.246827
 H        -0.360218        -1.209330        -0.794317
 H         4.070596        -0.473408        -1.159544
 H         4.307201         0.944862         1.038738
 H         3.568680         1.976207        -0.268188
 H         1.074118         1.755870         2.570508
 H         3.554990        -0.332822         2.296593
 H         1.876429        -0.922046         2.690462
 H         2.633291        -2.181151         0.409375
