19
Iteration:   627
 C        -0.008158        -0.386608        -0.222390
 C         1.360564         0.014190        -0.010558
 O         2.049603         0.213961        -1.276215
 C         3.252004        -0.251137        -0.427482
 C         3.533410         0.941450         0.505625
 C         2.141036         0.847873         1.258679
 O         1.746887         1.866602         2.037118
 C         2.246040        -0.605235         1.889445
 C         2.313198        -1.055493         0.452347
 H        -0.357753        -0.841756         0.712142
 H        -0.780527         0.370053        -0.231238
 H        -0.123791        -1.090675        -1.057138
 H         4.000839        -0.630807        -1.087002
 H         4.294862         0.886609         1.253599
 H         3.655754         1.863870        -0.076258
 H         0.862897         1.866061         2.343280
 H         3.118052        -0.742145         2.511448
 H         1.341762        -1.077443         2.322960
 H         2.202768        -2.160368         0.259329
