19
Iteration:  2189
 C        -0.182457        -0.073192        -0.129381
 C         1.365787        -0.139224        -0.013438
 O         2.104233         0.103183        -1.222528
 C         3.279734        -0.160693        -0.454493
 C         3.376354         0.992871         0.458731
 C         2.147321         0.751224         1.213648
 O         1.523674         1.761190         1.987964
 C         2.517623        -0.566772         1.859023
 C         2.426313        -1.156350         0.450505
 H        -0.572322         0.004850         0.933824
 H        -0.297826         0.840710        -0.623250
 H        -0.498010        -1.035757        -0.492507
 H         4.189574        -0.286126        -1.090238
 H         4.339227         0.818688         1.008139
 H         3.601942         2.007049         0.052204
 H         1.254778         1.428081         2.829406
 H         3.532929        -0.543775         2.288440
 H         1.736963        -0.854058         2.558883
 H         2.500384        -2.206509         0.142005
