19
Iteration:  1618
 C        -0.186192        -0.242138        -0.116438
 C         1.372577        -0.081657        -0.027510
 O         2.086560         0.158549        -1.238658
 C         3.297189        -0.153709        -0.462616
 C         3.559986         0.960472         0.547498
 C         2.071204         0.730121         1.235141
 O         1.551531         1.741505         1.978559
 C         2.340963        -0.575643         1.859707
 C         2.436774        -1.031482         0.469354
 H        -0.418868        -0.901144         0.687246
 H        -0.834776         0.625976        -0.212610
 H        -0.231663        -0.801142        -1.035435
 H         4.060108        -0.498872        -1.233125
 H         4.401232         0.921943         1.176333
 H         3.575205         1.961523         0.046239
 H         2.206738         2.486978         1.964502
 H         3.227738        -0.599027         2.489979
 H         1.474287        -0.982560         2.441272
 H         2.620862        -2.107600         0.251437
