19
Iteration:   811charge 0 multiplicity 1
 C        -0.082295        -0.429029        -0.110059
 C         1.356884        -0.015389        -0.030173
 O         2.160850         0.226530        -1.325558
 C         3.293035        -0.248077        -0.450033
 C         3.460003         0.998450         0.516785
 C         2.104383         0.781626         1.285823
 O         1.657901         1.935720         1.978566
 C         2.345769        -0.615870         1.868340
 C         2.232328        -1.072368         0.384882
 H        -0.255729        -0.789029         0.975597
 H        -0.795945         0.428053        -0.273816
 H        -0.197834        -1.190839        -0.887386
 H         4.076409        -0.805823        -0.835293
 H         4.304688         0.879825         1.205081
 H         3.440996         1.987388         0.065372
 H         1.864512         1.798921         2.905805
 H         3.377311        -0.800473         2.287288
 H         1.570353        -0.956108         2.640080
 H         2.001856        -2.145658         0.343928
