19
Iteration:   676
 C        -0.153763        -0.151026        -0.156733
 C         1.349386        -0.185897        -0.009685
 O         2.065861         0.224650        -1.186225
 C         3.321657        -0.189487        -0.360944
 C         3.453818         0.946015         0.540548
 C         2.101586         0.715279         1.169991
 O         1.617646         1.936993         1.833961
 C         2.433109        -0.675923         1.912473
 C         2.470523        -1.162966         0.458113
 H        -0.767272        -0.547780         0.662083
 H        -0.577327         0.878853        -0.380216
 H        -0.522288        -0.544055        -1.152977
 H         4.024237        -0.585071        -1.182554
 H         4.308572         0.646965         1.235551
 H         3.505876         2.037746         0.361647
 H         1.252728         1.720097         2.744425
 H         3.272644        -0.779196         2.640238
 H         1.508403        -1.000747         2.423807
 H         2.355649        -2.179424         0.107368
