19
Iteration:  2408charge 0 multiplicity 1
 C        -0.083123        -0.058758         0.084245
 C         1.398783        -0.105209         0.066800
 O         2.072657         0.120226        -1.235652
 C         3.252977        -0.210885        -0.527943
 C         3.463072         0.973927         0.474004
 C         2.118876         0.688755         1.115277
 O         1.400422         1.839291         1.857760
 C         2.581755        -0.545956         1.892220
 C         2.465486        -1.226873         0.451572
 H        -0.492797        -0.097300         1.132990
 H        -0.421126         0.951758        -0.223720
 H        -0.474919        -0.787628        -0.591184
 H         4.096048        -0.281528        -1.230785
 H         4.305506         0.659312         1.013731
 H         3.510363         1.907552        -0.086284
 H         0.831581         1.482621         2.543360
 H         3.554335        -0.412340         2.422884
 H         2.023518        -0.991691         2.700190
 H         2.129348        -2.184650         0.156234
