19
Iteration:  3522charge 0 multiplicity 1
 C        -0.108521        -0.329131         0.073937
 C         1.397559        -0.044760         0.037984
 O         1.985994         0.061600        -1.196978
 C         3.301290        -0.202968        -0.364572
 C         3.395742         1.071957         0.384917
 C         2.092856         0.796086         1.124478
 O         1.513650         1.897552         1.800740
 C         2.580084        -0.560388         1.862707
 C         2.455981        -1.159690         0.452414
 H        -0.424806        -0.586588         1.176805
 H        -0.760960         0.593530        -0.112523
 H        -0.246928        -1.024866        -0.729686
 H         4.038250        -0.626643        -1.131727
 H         4.193558         1.075093         1.168979
 H         3.475678         1.946513        -0.361592
 H         1.813998         1.870703         2.705379
 H         3.486168        -0.448382         2.485251
 H         1.714330        -1.000132         2.500619
 H         2.337981        -2.215859         0.240167
