19
Iteration:  4025
 C        -0.173642        -0.346920         0.004549
 C         1.330834        -0.212643         0.050671
 O         1.986132         0.116560        -1.274861
 C         3.273926        -0.198315        -0.488931
 C         3.435340         1.100860         0.458553
 C         2.136566         0.769697         1.178852
 O         1.572842         1.888349         1.868457
 C         2.518489        -0.472460         1.934874
 C         2.557591        -1.191406         0.525106
 H        -0.538792        -0.511472         1.094162
 H        -0.690428         0.634056        -0.360535
 H        -0.544223        -1.194433        -0.508912
 H         4.239522        -0.458493        -0.973449
 H         4.378399         1.098590         1.102786
 H         3.450399         2.061143        -0.108362
 H         1.116813         2.358555         1.154426
 H         3.412274        -0.573876         2.551557
 H         1.805226        -0.742631         2.739986
 H         2.483970        -2.357141         0.317379
