19
Iteration:   464charge 0 multiplicity 1
 C        -0.078488        -0.249722        -0.199975
 C         1.370986        -0.104247        -0.066055
 O         2.046976         0.322804        -1.219526
 C         3.318839        -0.164642        -0.437108
 C         3.518447         0.844943         0.589019
 C         2.092850         0.779426         1.190280
 O         1.644404         1.798970         1.989857
 C         2.333314        -0.609329         1.961530
 C         2.366273        -1.169648         0.414179
 H        -0.515600        -0.718243         0.635250
 H        -0.608838         0.620269        -0.330128
 H        -0.278621        -0.903857        -1.004541
 H         4.108648        -0.556560        -1.019754
 H         4.264805         0.655079         1.335287
 H         3.742564         1.843322         0.244050
 H         1.325246         2.584776         1.469045
 H         3.219577        -0.570467         2.509273
 H         1.497061        -0.766370         2.607492
 H         2.125988        -2.274551         0.281564
