19
Iteration:  4559
 C        -0.121920        -0.254493         0.082764
 C         1.404274        -0.162664         0.069409
 O         1.999846         0.036925        -1.163852
 C         3.226048        -0.189326        -0.535950
 C         3.377665         1.143071         0.315042
 C         2.186038         0.775966         1.221406
 O         1.493336         1.866240         1.727168
 C         2.542949        -0.577371         1.965788
 C         2.577584        -1.128844         0.553186
 H        -0.567994        -0.798986         0.882338
 H        -0.599508         0.778899         0.116612
 H        -0.311030        -0.803086        -0.877472
 H         4.029865        -0.533059        -1.291186
 H         4.404589         1.408016         0.655424
 H         3.034397         2.054265        -0.293868
 H         1.140620         1.665185         2.633970
 H         3.439364        -0.509847         2.677893
 H         1.586166        -1.015870         2.463710
 H         2.648130        -2.193295         0.427298
