19
Iteration:  4428
 C        -0.153815        -0.298088         0.125927
 C         1.399583        -0.098415         0.113732
 O         2.045147         0.030826        -1.224833
 C         3.232645        -0.213183        -0.461728
 C         3.391902         1.105678         0.298692
 C         2.143335         0.846936         1.138756
 O         1.442857         1.746957         1.867295
 C         2.572280        -0.420536         1.873032
 C         2.569404        -1.167251         0.531248
 H        -0.545312        -0.574803         1.070988
 H        -0.694519         0.523355        -0.436821
 H        -0.349158        -1.207039        -0.479402
 H         4.090297        -0.469372        -1.188919
 H         4.193152         1.207889         0.985196
 H         3.157238         1.963353        -0.334839
 H         1.871452         2.605769         1.878885
 H         3.458448        -0.741324         2.482456
 H         1.777113        -0.876488         2.521408
 H         2.372590        -2.162023         0.258901
