19
Iteration:  2639charge 0 multiplicity 1
 C        -0.161348        -0.471653        -0.118685
 C         1.302604        -0.131538         0.023275
 O         1.938589         0.144761        -1.226606
 C         3.216427        -0.191081        -0.473960
 C         3.428808         0.987921         0.447000
 C         2.123279         0.833591         1.260776
 O         1.776191         2.053004         1.884762
 C         2.441639        -0.535082         1.876908
 C         2.504644        -1.163520         0.495174
 H        -0.323583        -1.017365         0.766976
 H        -0.844560         0.460458         0.004462
 H        -0.326596        -0.977480        -1.096438
 H         4.090011        -0.623212        -0.970374
 H         4.348464         0.875588         1.044799
 H         3.347405         1.946402        -0.100598
 H         1.114595         1.956664         2.555564
 H         3.461337        -0.505608         2.418478
 H         1.810253        -1.125143         2.631715
 H         2.620549        -2.305257         0.555042
