19
Iteration:   412charge 0 multiplicity 1
 C        -0.023096        -0.077817        -0.092594
 C         1.411756        -0.065928        -0.045321
 O         2.174076         0.245906        -1.227322
 C         3.270474        -0.249042        -0.396438
 C         3.416943         1.047248         0.530591
 C         2.106508         0.720542         1.224119
 O         1.566678         1.724415         1.948578
 C         2.319511        -0.667454         1.874159
 C         2.387847        -1.242009         0.434517
 H        -0.479279        -0.177941         0.932709
 H        -0.462240         0.934147        -0.428138
 H        -0.493169        -0.811545        -0.794632
 H         4.117371        -0.653524        -0.929022
 H         4.178569         1.183419         1.313611
 H         3.354188         1.918460        -0.159222
 H         1.300931         2.441897         1.341349
 H         3.259391        -0.915602         2.436872
 H         1.440185        -0.958227         2.467290
 H         2.265779        -2.297073         0.406214
