19
Iteration:   369charge 0 multiplicity 1
 C        -0.039071         0.078517        -0.104342
 C         1.445866        -0.071602         0.031427
 O         2.084918         0.077355        -1.259049
 C         3.272829        -0.227604        -0.460911
 C         3.497265         0.998910         0.542086
 C         2.146779         0.746507         1.211182
 O         1.326144         1.704523         1.922241
 C         2.413496        -0.666536         1.857393
 C         2.471032        -1.184894         0.479307
 H        -0.574736        -0.013799         0.904846
 H        -0.297167         1.154697        -0.478861
 H        -0.394257        -0.793947        -0.734252
 H         4.124597        -0.520370        -1.084094
 H         4.419047         0.951048         1.170804
 H         3.527981         1.998878         0.030045
 H         1.857976         2.292741         2.449059
 H         3.293314        -0.679283         2.594762
 H         1.454516        -1.063006         2.239134
 H         2.511448        -2.147399         0.094235
