19
Iteration:  4931charge 0 multiplicity 1
 C        -0.099245        -0.304881         0.145879
 C         1.402690        -0.139391         0.064265
 O         1.962890         0.035212        -1.261943
 C         3.299848        -0.246411        -0.642034
 C         3.395273         1.110429         0.381043
 C         2.108365         0.820853         1.226064
 O         1.408395         1.839306         1.844863
 C         2.576181        -0.472328         1.947222
 C         2.598663        -1.139649         0.495944
 H        -0.336903        -0.405143         1.197387
 H        -0.715882         0.550019        -0.344298
 H        -0.254953        -1.360853        -0.252017
 H         4.118350        -0.601556        -1.157222
 H         4.332451         0.995189         0.908816
 H         3.173976         2.049826        -0.310306
 H         2.011445         2.497490         2.275467
 H         3.363104        -0.448801         2.695750
 H         1.674776        -0.815581         2.447464
 H         2.311005        -2.219179         0.257137
