19
Iteration:  1265
 C        -0.150289        -0.153683        -0.074874
 C         1.340044        -0.026234         0.025339
 O         2.157484         0.127566        -1.245463
 C         3.312807        -0.197354        -0.445166
 C         3.464987         0.971511         0.484024
 C         2.151357         0.761106         1.236635
 O         1.443137         1.697332         1.930794
 C         2.495588        -0.579539         1.879550
 C         2.379946        -1.105878         0.467464
 H        -0.636094        -0.514898         0.838977
 H        -0.691523         0.831559        -0.148352
 H        -0.400804        -0.868541        -0.852821
 H         4.325144        -0.459182        -0.923307
 H         4.384005         0.903702         1.060861
 H         3.521396         1.867981        -0.161106
 H         1.672307         2.599552         1.628402
 H         3.489034        -0.613331         2.407070
 H         1.672585        -1.042048         2.444172
 H         2.124871        -2.167962         0.339828
