19
Iteration:    70
 C         0.027665        -0.153485        -0.060484
 C         1.418714        -0.025077        -0.033662
 O         2.116040         0.158391        -1.317507
 C         3.277477        -0.290825        -0.344164
 C         3.473662         1.016013         0.437311
 C         2.166892         0.740255         1.193790
 O         1.587035         1.763651         1.927870
 C         2.231090        -0.525232         1.949165
 C         2.363919        -1.123662         0.515639
 H        -0.447065        -0.470872         0.916341
 H        -0.398301         0.781162        -0.526895
 H        -0.083113        -1.017231        -0.787236
 H         4.108774        -0.702385        -0.952065
 H         4.355986         1.128246         1.083101
 H         3.426062         1.800009        -0.324423
 H         0.723368         1.476033         2.182736
 H         3.120896        -0.511736         2.601772
 H         1.237308        -0.884198         2.482055
 H         2.208020        -2.223591         0.139923
