19
Iteration:  1294charge 0 multiplicity 1
 C        -0.011420        -0.329957        -0.229012
 C         1.322665        -0.142291        -0.009776
 O         2.093477         0.206269        -1.188180
 C         3.253223        -0.200188        -0.460929
 C         3.407419         1.084988         0.416841
 C         2.119657         0.810104         1.247697
 O         1.614058         1.851127         2.009881
 C         2.395523        -0.636357         1.908103
 C         2.324722        -1.137357         0.513710
 H        -0.492123        -0.686733         0.722701
 H        -0.519215         0.671583        -0.458754
 H        -0.356476        -1.052722        -1.053136
 H         4.112397        -0.509808        -0.942726
 H         4.316338         1.097257         1.079020
 H         3.318776         1.784994        -0.425373
 H         2.426103         2.318690         2.386418
 H         3.368044        -0.847600         2.470913
 H         1.551749        -1.074110         2.455619
 H         2.214740        -2.221925         0.454801
