19
Iteration:  4558
 C        -0.120852        -0.253358         0.085210
 C         1.401876        -0.169451         0.062803
 O         1.998889         0.038207        -1.163033
 C         3.219446        -0.192652        -0.527046
 C         3.378824         1.149365         0.314544
 C         2.190824         0.770618         1.222755
 O         1.492464         1.870502         1.726832
 C         2.543646        -0.576620         1.964918
 C         2.577547        -1.127448         0.546663
 H        -0.578102        -0.819278         0.906721
 H        -0.591396         0.771516         0.093487
 H        -0.285495        -0.787763        -0.868170
 H         4.034897        -0.532719        -1.279147
 H         4.441337         1.402732         0.671538
 H         3.027034         2.046731        -0.299479
 H         1.129075         1.630605         2.632676
 H         3.436574        -0.524803         2.661192
 H         1.600720        -0.984483         2.430740
 H         2.634813        -2.168195         0.458921
