19
Iteration:  2900charge 0 multiplicity 1
 C        -0.030427        -0.127667         0.386149
 C         1.449063        -0.196191         0.075971
 O         2.048946         0.081252        -1.251448
 C         3.276863        -0.187293        -0.454063
 C         3.487083         1.135930         0.362009
 C         2.123717         0.748294         1.190738
 O         1.343744         1.795873         1.605097
 C         2.403433        -0.598787         1.890695
 C         2.575243        -1.188715         0.439422
 H        -0.409583        -0.258910         1.341373
 H        -0.412108         0.907084         0.111514
 H        -0.601845        -0.754180        -0.334226
 H         4.082190        -0.432042        -1.208821
 H         4.356721         1.175183         0.989890
 H         3.290977         1.932668        -0.350485
 H         1.795423         1.928247         2.488893
 H         3.163741        -0.517865         2.651773
 H         1.544443        -0.956570         2.364607
 H         2.489480        -2.310562         0.055398
