19
Iteration:  4334
 C        -0.067303        -0.356908         0.165937
 C         1.436862        -0.103214         0.145321
 O         1.948616         0.154434        -1.183602
 C         3.326299        -0.251364        -0.505465
 C         3.429492         1.072304         0.327840
 C         2.094618         0.801642         1.130740
 O         1.424576         1.826195         1.723320
 C         2.513867        -0.498472         1.916387
 C         2.541209        -1.086703         0.536464
 H        -0.357130        -0.845119         1.054960
 H        -0.611094         0.457586        -0.213932
 H        -0.255159        -1.167970        -0.604171
 H         4.091134        -0.644040        -1.170052
 H         4.352418         1.078225         0.915277
 H         3.290989         1.829023        -0.495430
 H         1.909430         2.145846         2.480570
 H         3.409971        -0.588873         2.493010
 H         1.702596        -0.922919         2.525279
 H         2.194135        -2.172947         0.240628
