19
Iteration:   106
 C        -0.232257        -0.239082        -0.255347
 C         1.355023        -0.191648        -0.013058
 O         2.067036         0.093309        -1.247699
 C         3.297472        -0.185068        -0.305170
 C         3.495209         1.011328         0.605968
 C         2.075713         0.803224         1.301351
 O         1.702584         2.059248         1.935039
 C         2.421810        -0.689807         1.860040
 C         2.418909        -1.192101         0.403100
 H        -0.941328        -0.546028         0.528215
 H        -0.597274         0.778428        -0.567932
 H        -0.420863        -0.840577        -1.181158
 H         4.126701        -0.612051        -0.859726
 H         4.439881         0.967626         1.302443
 H         3.601275         1.912075        -0.052043
 H         0.773067         1.954596         2.034817
 H         3.430489        -0.627590         2.418367
 H         1.791996        -1.282036         2.616885
 H         2.511496        -2.161299         0.077002
