19
Iteration:  4689
 C        -0.033518        -0.320293         0.073763
 C         1.445082        -0.136583         0.024946
 O         1.967708         0.107176        -1.232134
 C         3.261881        -0.217909        -0.490049
 C         3.422956         1.050526         0.317476
 C         2.151343         0.790256         1.168609
 O         1.479097         1.824042         1.923678
 C         2.480273        -0.518345         1.933633
 C         2.487043        -1.126819         0.534552
 H        -0.262068        -0.133772         1.102968
 H        -0.598302         0.318485        -0.670621
 H        -0.464868        -1.297532        -0.262725
 H         4.273579        -0.441926        -0.993823
 H         4.143942         1.226083         1.157933
 H         3.053105         1.880894        -0.362190
 H         1.340372         2.690707         1.420957
 H         3.461682        -0.591369         2.394036
 H         1.792861        -0.887413         2.617782
 H         2.533266        -2.138342         0.250410
