19
Iteration:   970
 C        -0.214140        -0.415174        -0.282134
 C         1.321046        -0.110122        -0.061885
 O         2.111828         0.210404        -1.262276
 C         3.234715        -0.172702        -0.366488
 C         3.424885         1.008023         0.565125
 C         2.057101         0.759532         1.353931
 O         1.820271         1.995295         1.925122
 C         2.434350        -0.594374         1.931920
 C         2.354445        -1.150412         0.401049
 H        -0.660588        -0.808883         0.611809
 H        -0.796934         0.493686        -0.596759
 H        -0.560000        -1.240196        -0.999625
 H         4.164873        -0.687807        -1.031827
 H         4.157193         0.824234         1.424366
 H         3.761272         1.935647         0.064462
 H         1.465387         2.017409         2.818056
 H         3.438270        -0.651300         2.378907
 H         1.588270        -1.018990         2.442485
 H         2.193917        -2.258633         0.253556
