19
Iteration:  2583
 C        -0.065889        -0.217737         0.164718
 C         1.397310        -0.064900         0.080620
 O         2.065479         0.229714        -1.232950
 C         3.328480        -0.315947        -0.506302
 C         3.439094         1.041760         0.285211
 C         2.148233         0.823236         1.136239
 O         1.460781         1.808549         1.848886
 C         2.524901        -0.609293         1.986408
 C         2.415449        -1.165310         0.433235
 H        -0.378917        -0.033708         1.203968
 H        -0.504698         0.601280        -0.490294
 H        -0.479177        -1.198360        -0.053372
 H         4.121228        -0.855450        -1.021782
 H         4.226918         1.121575         1.040922
 H         3.490639         1.944467        -0.317074
 H         0.513879         1.599444         2.039704
 H         3.501096        -0.741413         2.568327
 H         1.598023        -0.950080         2.517423
 H         2.250836        -2.215244         0.162133
