19
Iteration:   363charge 0 multiplicity 1
 C        -0.012649         0.041942        -0.090080
 C         1.479475        -0.074291         0.032411
 O         2.121799         0.144120        -1.205649
 C         3.205300        -0.220143        -0.454445
 C         3.487712         0.982621         0.509508
 C         2.168223         0.735059         1.232530
 O         1.328073         1.678863         1.875381
 C         2.441436        -0.592029         1.891858
 C         2.393666        -1.198952         0.433720
 H        -0.590541        -0.029879         0.797235
 H        -0.311174         0.937765        -0.543780
 H        -0.358685        -0.664288        -0.817991
 H         4.161899        -0.576405        -0.903246
 H         4.455252         0.882835         1.009357
 H         3.368163         1.909231        -0.044159
 H         1.865726         2.128635         2.548669
 H         3.244858        -0.796998         2.575238
 H         1.522796        -0.965293         2.362060
 H         2.485030        -2.309335         0.106120
