19
Iteration:   871charge 0 multiplicity 1
 C        -0.091387         0.059273        -0.045412
 C         1.409584        -0.114549         0.124931
 O         2.070797         0.149602        -1.210370
 C         3.322791        -0.187238        -0.375228
 C         3.362882         1.038914         0.464812
 C         2.092619         0.638447         1.293489
 O         1.483202         1.844100         1.768373
 C         2.529198        -0.743715         1.879594
 C         2.485878        -1.260805         0.442615
 H        -0.532610        -0.286709         0.847290
 H        -0.321534         1.091660        -0.228045
 H        -0.563954        -0.664754        -0.712452
 H         4.254468        -0.374881        -1.083706
 H         4.312513         1.252288         1.025673
 H         3.131477         1.987973        -0.039302
 H         0.622155         1.941922         1.266415
 H         3.560081        -0.749656         2.274950
 H         1.829467        -1.165241         2.559256
 H         2.513244        -2.320145         0.220586
