19
Iteration:  3084
 C        -0.179375        -0.133312         0.184025
 C         1.433044        -0.169730         0.069649
 O         2.031486         0.036269        -1.216036
 C         3.279151        -0.153871        -0.536768
 C         3.371245         1.043362         0.429333
 C         2.104971         0.723413         1.185169
 O         1.422510         1.841146         1.691620
 C         2.578294        -0.605256         1.966335
 C         2.577256        -1.173307         0.526984
 H        -0.533560        -0.514288         1.099656
 H        -0.499255         0.936697         0.048290
 H        -0.645209        -0.718534        -0.658062
 H         4.149912        -0.214567        -1.198995
 H         4.190980         1.281826         1.119993
 H         3.216844         1.913698        -0.244576
 H         1.990127         2.651426         1.511553
 H         3.596571        -0.527807         2.457599
 H         1.804748        -1.154697         2.428284
 H         2.489706        -2.298606         0.399414
