19
Iteration:  4039charge 0 multiplicity 1
 C        -0.094186        -0.323862         0.059789
 C         1.407189        -0.067805         0.054456
 O         2.005750         0.139439        -1.168712
 C         3.277461        -0.198445        -0.428538
 C         3.406211         1.030506         0.346561
 C         2.095646         0.781079         1.121745
 O         1.542944         1.818029         1.813016
 C         2.548289        -0.555621         1.957901
 C         2.499754        -1.127273         0.563791
 H        -0.539665        -0.314588         1.021130
 H        -0.602389         0.458366        -0.449370
 H        -0.148294        -1.257600        -0.572115
 H         3.887830        -0.594099        -1.264939
 H         4.151470         1.049710         1.114216
 H         3.373102         1.933189        -0.327601
 H         0.848053         2.304136         1.351760
 H         3.442205        -0.383810         2.487058
 H         1.697521        -0.959392         2.431403
 H         2.436508        -2.238207         0.269225
