19
Iteration:   789charge 0 multiplicity 1
 C        -0.174489        -0.354833        -0.175009
 C         1.375604        -0.062851         0.000003
 O         2.096815         0.301894        -1.143869
 C         3.273493        -0.227528        -0.396628
 C         3.432747         1.023097         0.468708
 C         2.104092         0.748553         1.233229
 O         1.692176         1.864066         1.878529
 C         2.331332        -0.642185         1.930450
 C         2.408011        -1.169980         0.430827
 H        -0.546450        -0.677784         0.846723
 H        -0.795956         0.506278        -0.557279
 H        -0.187085        -1.129010        -0.942656
 H         3.960630        -0.386246        -1.129147
 H         4.212373         0.996208         1.232738
 H         3.464070         1.893550        -0.179823
 H         2.516662         2.193863         2.345150
 H         3.111196        -0.877507         2.694651
 H         1.298057        -0.907809         2.367926
 H         2.340731        -2.250472         0.142268
