19
Iteration:  1575
 C        -0.102356        -0.001064        -0.162426
 C         1.413297        -0.041827         0.073603
 O         2.097548         0.138060        -1.173550
 C         3.324080        -0.190612        -0.408884
 C         3.365280         1.078788         0.379736
 C         2.141593         0.691603         1.233426
 O         1.520652         1.692707         1.991050
 C         2.415956        -0.666732         1.909932
 C         2.456120        -1.211023         0.452198
 H        -0.509393        -0.226823         0.771707
 H        -0.321078         0.954288        -0.558304
 H        -0.348184        -0.632479        -0.990745
 H         4.169768        -0.660671        -0.961542
 H         4.230161         1.245864         0.944362
 H         3.203588         2.010948        -0.113410
 H         0.813838         2.104026         1.388165
 H         3.415308        -0.603675         2.347861
 H         1.724536        -1.311746         2.495535
 H         2.570620        -2.307413         0.348764
