19
Iteration:  3002charge 0 multiplicity 1
 C        -0.220047        -0.422272        -0.064110
 C         1.370864        -0.170224        -0.084922
 O         2.053352        -0.040558        -1.253560
 C         3.216089        -0.148696        -0.502992
 C         3.407987         1.104389         0.399488
 C         2.097875         0.848099         1.197888
 O         1.763394         1.945004         2.073734
 C         2.438589        -0.458648         1.897440
 C         2.444344        -1.166072         0.523915
 H        -0.386175        -0.548413         1.077408
 H        -0.822167         0.361233        -0.456702
 H        -0.461562        -1.371948        -0.525289
 H         4.081294        -0.463069        -1.061875
 H         4.339214         0.982213         0.979595
 H         3.312824         2.084562        -0.100135
 H         1.245460         2.564848         1.548712
 H         3.285320        -0.271093         2.515617
 H         1.732713        -0.871598         2.660602
 H         2.548206        -2.199330         0.313254
