19
Iteration:  4194
 C        -0.023642        -0.300283         0.166273
 C         1.403753        -0.111224         0.088781
 O         2.015799         0.055532        -1.199305
 C         3.273719        -0.153427        -0.502375
 C         3.404668         1.159253         0.404499
 C         2.151995         0.777792         1.106613
 O         1.525923         1.897778         1.699035
 C         2.479213        -0.576959         1.900773
 C         2.444283        -1.179507         0.566394
 H        -0.317699        -0.879412         1.091784
 H        -0.532125         0.598037        -0.164591
 H        -0.513437        -0.961669        -0.697682
 H         4.047339        -0.456167        -1.187788
 H         4.323431         1.093492         1.039749
 H         3.217581         2.046943        -0.263152
 H         1.010246         1.617680         2.517617
 H         3.442619        -0.677719         2.568888
 H         1.535236        -0.978632         2.478085
 H         2.519786        -2.257189         0.314340
