19
Iteration:  4477
 C        -0.111559        -0.401819         0.042257
 C         1.388769        -0.147050         0.139312
 O         1.970644         0.148452        -1.144041
 C         3.293224        -0.164835        -0.546014
 C         3.400690         1.084555         0.333439
 C         2.110376         0.794634         1.206824
 O         1.602349         1.854626         1.817338
 C         2.528652        -0.504746         1.877720
 C         2.498374        -1.143462         0.525877
 H        -0.390616        -0.411102         1.189690
 H        -0.683182         0.248971        -0.601466
 H        -0.391315        -1.440338        -0.182044
 H         4.080768        -0.445181        -1.153702
 H         4.327079         1.089999         1.010159
 H         3.219120         1.966176        -0.284076
 H         0.852920         2.210506         1.256226
 H         3.232275        -0.518864         2.690242
 H         1.654031        -0.866064         2.396546
 H         2.638930        -2.306545         0.426369
