19
Iteration:  1784
 C        -0.055749        -0.220321        -0.110133
 C         1.421824        -0.093603         0.089692
 O         1.962266         0.310314        -1.194962
 C         3.350377        -0.132975        -0.443032
 C         3.477167         1.007799         0.473285
 C         2.223699         0.716470         1.246187
 O         1.507502         1.809781         1.860616
 C         2.318456        -0.765293         1.927829
 C         2.407154        -1.174571         0.432589
 H        -0.661223        -0.495861         0.770347
 H        -0.483331         0.640293        -0.536550
 H        -0.232389        -1.004987        -0.930038
 H         4.026663        -0.524997        -1.180851
 H         4.474399         0.997341         0.980853
 H         3.326922         2.007000         0.084065
 H         2.244857         2.344082         2.129636
 H         3.109360        -1.097647         2.680662
 H         1.287025        -0.824336         2.275008
 H         2.676335        -2.228631         0.155237
