19
Iteration:  1650charge 0 multiplicity 1
 C         0.007614        -0.343808        -0.019599
 C         1.416340        -0.038334        -0.005212
 O         2.131765         0.355095        -1.187950
 C         3.233749        -0.198101        -0.460852
 C         3.525384         0.923882         0.460802
 C         2.142504         0.745715         1.288457
 O         1.462536         1.908797         1.839551
 C         2.315991        -0.686976         1.884891
 C         2.326480        -1.150663         0.422013
 H        -0.170283        -0.916568         0.885705
 H        -0.714999         0.496073        -0.160346
 H        -0.047815        -1.067775        -0.828353
 H         3.993819        -0.612137        -1.213627
 H         4.404663         0.851862         1.061223
 H         3.473983         1.918858        -0.132259
 H         1.976074         2.140591         2.596740
 H         3.260468        -0.996948         2.333517
 H         1.405556        -1.021367         2.448031
 H         2.294096        -2.240586         0.207940
