19
Iteration:  4814charge 0 multiplicity 1
 C        -0.084304        -0.353435         0.147180
 C         1.382284        -0.085303         0.109415
 O         2.033522         0.112627        -1.239600
 C         3.280034        -0.268459        -0.512092
 C         3.490170         1.039473         0.336565
 C         2.026933         0.815175         1.147373
 O         1.392001         1.948672         1.789747
 C         2.555678        -0.560346         1.900250
 C         2.520820        -1.090639         0.481497
 H        -0.223693        -0.905300         1.115914
 H        -0.650963         0.492330         0.372684
 H        -0.388209        -1.108653        -0.498135
 H         4.150035        -0.690105        -1.004790
 H         4.372955         1.064929         0.959741
 H         3.576781         1.774391        -0.440039
 H         1.594453         1.981222         2.783934
 H         3.523397        -0.514201         2.384106
 H         1.725968        -1.027032         2.483731
 H         2.448361        -2.216208         0.178927
