19
Iteration:   449
 C        -0.143229        -0.291436        -0.230829
 C         1.402351         0.035685         0.000917
 O         2.084457         0.315642        -1.243020
 C         3.226569        -0.267548        -0.500694
 C         3.639878         0.904769         0.578668
 C         2.188294         0.751760         1.254697
 O         1.520724         1.795990         2.017925
 C         2.382554        -0.546749         1.885108
 C         2.309652        -1.140332         0.535275
 H        -0.478635        -0.781930         0.718535
 H        -0.630363         0.710244        -0.516063
 H        -0.193614        -1.027992        -1.085060
 H         3.995158        -0.630783        -1.264888
 H         4.357060         0.371505         1.261567
 H         4.091284         1.830128         0.169381
 H         1.044762         2.301467         1.382770
 H         3.260278        -0.842600         2.564455
 H         1.478070        -1.063642         2.325225
 H         2.325961        -2.214417         0.249723
