19
Iteration:  4373charge 0 multiplicity 1
 C        -0.156715        -0.320536         0.186582
 C         1.378774        -0.102702         0.087757
 O         1.988319        -0.002958        -1.215028
 C         3.311766        -0.167451        -0.472414
 C         3.470692         1.085922         0.328960
 C         2.108054         0.767340         1.127655
 O         1.373048         1.846636         1.712234
 C         2.618899        -0.502920         1.935512
 C         2.548221        -1.091104         0.518085
 H        -0.752060        -0.714414         1.020914
 H        -0.598777         0.768764         0.143401
 H        -0.386531        -0.810341        -0.766839
 H         4.091719        -0.533297        -1.225513
 H         4.346326         1.149347         0.964508
 H         3.349419         2.120979         0.000253
 H         1.848952         2.051792         2.580860
 H         3.620592        -0.553053         2.518418
 H         1.888070        -1.128475         2.520010
 H         2.451928        -2.096121         0.205576
