19
Iteration:  3600charge 0 multiplicity 1
 C        -0.118256        -0.263455        -0.004902
 C         1.393742        -0.168244         0.062914
 O         1.985907         0.172285        -1.192300
 C         3.259571        -0.178016        -0.494685
 C         3.463223         1.048701         0.319147
 C         2.164690         0.794650         1.209045
 O         1.500539         1.872872         1.787792
 C         2.652234        -0.574335         2.010782
 C         2.414734        -1.175670         0.552057
 H        -0.258721        -0.617174         1.113497
 H        -0.699976         0.651712        -0.230442
 H        -0.565031        -1.117433        -0.557913
 H         4.032769        -0.598628        -1.138304
 H         4.456967         1.120809         0.784785
 H         3.036620         1.828538        -0.277736
 H         0.574024         1.749585         1.773806
 H         3.678644        -0.635608         2.360504
 H         1.978660        -0.887666         2.888190
 H         2.233094        -2.233609         0.373541
