19
Iteration:  4358
 C        -0.109688        -0.312399         0.102308
 C         1.394967        -0.201729         0.092140
 O         1.988654         0.122591        -1.192892
 C         3.246011        -0.169524        -0.552608
 C         3.462148         1.080638         0.331937
 C         2.188644         0.817792         1.203944
 O         1.364783         1.819591         1.701905
 C         2.587494        -0.492291         1.950455
 C         2.479816        -1.132589         0.548062
 H        -0.084326        -0.903571         1.045094
 H        -0.594858         0.596939         0.089373
 H        -0.596215        -0.974536        -0.590488
 H         4.049691        -0.467717        -1.164161
 H         4.367658         0.885998         0.969985
 H         3.539102         1.821446        -0.424216
 H         1.641715         2.103428         2.568319
 H         3.581161        -0.462875         2.444998
 H         1.877362        -0.748041         2.744735
 H         2.565234        -2.222247         0.518286
