19
Iteration:   633
 C         0.002378        -0.423877        -0.210937
 C         1.382308         0.080546        -0.017567
 O         2.046936         0.234328        -1.236723
 C         3.243871        -0.260956        -0.477955
 C         3.485993         0.932262         0.516104
 C         2.139983         0.797557         1.250952
 O         1.753304         1.883000         1.997838
 C         2.285376        -0.621187         1.917417
 C         2.288569        -1.002469         0.493658
 H        -0.405986        -1.058935         0.606572
 H        -0.706955         0.437295        -0.470561
 H        -0.171601        -0.993897        -1.166014
 H         4.106819        -0.743736        -1.010476
 H         4.321636         0.910318         1.273864
 H         3.662129         1.776318        -0.165491
 H         0.877657         1.642245         2.367723
 H         3.154529        -0.911679         2.563043
 H         1.393733        -1.127220         2.368248
 H         2.037960        -2.033176         0.270950
