19
Iteration:  1444
 C        -0.127286        -0.259978        -0.176338
 C         1.388491        -0.056724         0.029657
 O         2.100131         0.228888        -1.166293
 C         3.320380        -0.299021        -0.465075
 C         3.464051         1.140814         0.429667
 C         2.216847         0.800973         1.246755
 O         1.485796         1.736954         1.928871
 C         2.448242        -0.597774         1.867643
 C         2.295514        -1.136418         0.516381
 H        -0.607404        -0.856343         0.631416
 H        -0.650124         0.747582        -0.201021
 H        -0.318231        -0.852912        -1.172693
 H         4.023172        -0.948593        -1.111752
 H         4.308351         1.153100         1.178609
 H         3.444202         2.027412        -0.227753
 H         2.113761         2.026163         2.668990
 H         3.402581        -1.007074         2.213263
 H         1.631017        -0.810152         2.637048
 H         2.206241        -2.249483         0.272390
