19
Iteration:   411charge 0 multiplicity 1
 C        -0.025616        -0.065837        -0.088994
 C         1.395302        -0.080559        -0.045931
 O         2.184507         0.240427        -1.233819
 C         3.265653        -0.241074        -0.397359
 C         3.409792         1.046407         0.538845
 C         2.109754         0.722465         1.224703
 O         1.568781         1.721889         1.947471
 C         2.319391        -0.670800         1.868091
 C         2.399964        -1.235887         0.437648
 H        -0.450272        -0.167480         0.925826
 H        -0.451815         0.911369        -0.428560
 H        -0.501735        -0.779065        -0.776011
 H         4.091673        -0.644570        -0.933127
 H         4.164075         1.169474         1.313932
 H         3.324878         1.902132        -0.146209
 H         1.321118         2.469119         1.335340
 H         3.230895        -0.882360         2.440913
 H         1.459811        -0.953605         2.476353
 H         2.281271        -2.343285         0.404323
