19
Iteration:  1568charge 0 multiplicity 1
 C        -0.147411         0.025805        -0.164706
 C         1.404965        -0.045634         0.049358
 O         2.109750         0.133496        -1.207148
 C         3.280561        -0.185580        -0.407777
 C         3.454572         1.075532         0.360494
 C         2.144024         0.712727         1.200998
 O         1.481696         1.628678         1.976681
 C         2.461305        -0.651833         1.939463
 C         2.501625        -1.182779         0.509366
 H        -0.681239        -0.127538         0.843406
 H        -0.420083         1.065779        -0.509660
 H        -0.476976        -0.857027        -0.873612
 H         4.126930        -0.398450        -1.005341
 H         4.358925         0.919562         1.095477
 H         3.355342         2.085482        -0.088780
 H         0.663817         1.954744         1.508117
 H         3.393992        -0.777309         2.577131
 H         1.645244        -1.033028         2.561471
 H         2.387045        -2.232862         0.211047
