19
Iteration:  4518
 C        -0.122514        -0.319516         0.106081
 C         1.320592        -0.089804         0.089370
 O         2.085126         0.063215        -1.308020
 C         3.252031        -0.206572        -0.524392
 C         3.382631         1.022725         0.346972
 C         2.124504         0.714447         1.199039
 O         1.525074         1.896473         1.870480
 C         2.569558        -0.420187         1.918925
 C         2.543795        -1.082247         0.516487
 H        -0.291443        -0.600597         1.111509
 H        -0.913536         0.471141        -0.079425
 H        -0.331859        -1.327630        -0.367937
 H         4.063765        -0.607582        -1.142375
 H         4.161353         1.072351         1.007774
 H         3.332234         1.984827        -0.203958
 H         0.594342         1.900050         1.778689
 H         3.495690        -0.521357         2.513567
 H         1.952854        -1.125594         2.572044
 H         2.337962        -2.239614         0.446731
