19
Iteration:  2362
 C        -0.117791        -0.063027        -0.075523
 C         1.380978        -0.117376         0.076678
 O         2.084509         0.043340        -1.252925
 C         3.333757        -0.212646        -0.516016
 C         3.321641         1.146401         0.358166
 C         2.135432         0.775718         1.199438
 O         1.615337         1.808127         2.008133
 C         2.464467        -0.656317         1.877050
 C         2.427380        -1.212513         0.488067
 H        -0.538964         0.139555         0.942523
 H        -0.311318         0.758332        -0.709780
 H        -0.450793        -0.995180        -0.573153
 H         4.288819        -0.429964        -1.112609
 H         4.081401         1.400535         1.035029
 H         2.971758         1.872554        -0.381277
 H         1.187605         1.593417         2.869547
 H         3.260260        -0.792763         2.632680
 H         1.645037        -1.032009         2.504180
 H         2.330936        -2.283912         0.284890
