19
Iteration:    71charge 0 multiplicity 1
 C         0.017209        -0.158708        -0.068163
 C         1.418607        -0.028597        -0.041747
 O         2.123822         0.157235        -1.319927
 C         3.275434        -0.288067        -0.347813
 C         3.468853         1.015462         0.441359
 C         2.159597         0.743842         1.199063
 O         1.594326         1.763065         1.934209
 C         2.240998        -0.517871         1.947412
 C         2.360574        -1.124954         0.516639
 H        -0.437362        -0.469362         0.914665
 H        -0.414293         0.790104        -0.508355
 H        -0.121467        -1.029677        -0.781122
 H         4.106114        -0.711147        -0.942219
 H         4.364541         1.081819         1.113851
 H         3.411874         1.798557        -0.329588
 H         0.720162         1.482744         2.158387
 H         3.141310        -0.496426         2.612115
 H         1.247229        -0.883961         2.486223
 H         2.210840        -2.196723         0.158397
