19
Iteration:  4029
 C        -0.160231        -0.319548         0.030437
 C         1.352931        -0.150397         0.049818
 O         1.980791         0.130184        -1.260007
 C         3.274004        -0.198631        -0.457096
 C         3.427060         1.090303         0.443251
 C         2.105949         0.747414         1.140665
 O         1.571256         1.870834         1.850488
 C         2.542075        -0.492813         1.951593
 C         2.570843        -1.202196         0.557349
 H        -0.483611        -0.588616         0.977121
 H        -0.618908         0.459179        -0.482542
 H        -0.580287        -1.247473        -0.504121
 H         4.136714        -0.527484        -1.101092
 H         4.279949         1.108686         1.077229
 H         3.481201         2.038889        -0.147062
 H         1.001370         2.379465         1.206031
 H         3.447158        -0.609648         2.528429
 H         1.742942        -0.686180         2.647966
 H         2.417060        -2.252470         0.232822
