19
Iteration:    67
 C         0.046792        -0.140036        -0.040110
 C         1.434781        -0.012548        -0.000745
 O         2.091574         0.159997        -1.300176
 C         3.293381        -0.297411        -0.343396
 C         3.487966         1.014382         0.424637
 C         2.183362         0.739197         1.174110
 O         1.563411         1.773077         1.903717
 C         2.199923        -0.561347         1.954188
 C         2.369491        -1.134349         0.507581
 H        -0.463499        -0.441571         0.873088
 H        -0.360417         0.716927        -0.559242
 H        -0.000810        -0.938750        -0.782110
 H         4.106644        -0.669945        -0.966772
 H         4.352162         1.274453         0.991200
 H         3.460181         1.830858        -0.293041
 H         0.690502         1.438633         2.285920
 H         3.046360        -0.605303         2.598524
 H         1.297798        -0.840912         2.416710
 H         2.215786        -2.205382         0.136863
