19
Iteration:  1496
 C        -0.121846        -0.295039        -0.060387
 C         1.413169        -0.155655        -0.058222
 O         2.059796         0.282457        -1.166176
 C         3.271287        -0.047637        -0.399196
 C         3.465939         1.045165         0.541259
 C         2.137878         0.738596         1.222424
 O         1.615071         1.824588         1.901596
 C         2.298985        -0.722864         1.860115
 C         2.445992        -1.216146         0.433235
 H        -0.493341        -0.412256         0.952403
 H        -0.539378         0.654798        -0.354996
 H        -0.381987        -1.142939        -0.575506
 H         4.108209        -0.451344        -1.054071
 H         4.353694         0.864707         1.058572
 H         3.463948         1.885414        -0.166027
 H         1.958153         2.586261         1.328895
 H         3.048976        -0.852989         2.638225
 H         1.338652        -0.961105         2.352402
 H         2.414906        -2.257357         0.060842
