19
Iteration:  2414charge 0 multiplicity 1
 C        -0.098775        -0.077280         0.096982
 C         1.377130        -0.136957         0.065539
 O         2.057536         0.143314        -1.190716
 C         3.254308        -0.203742        -0.507029
 C         3.476279         0.940840         0.439324
 C         2.104096         0.718239         1.179268
 O         1.430012         1.867489         1.811202
 C         2.560647        -0.594832         1.890879
 C         2.481870        -1.154000         0.406338
 H        -0.417717        -0.389162         1.099955
 H        -0.354039         0.916326        -0.255153
 H        -0.481559        -0.851028        -0.638095
 H         4.173465        -0.560343        -1.072069
 H         4.397792         0.637018         1.063935
 H         3.432206         1.975310         0.032501
 H         0.777522         1.608253         2.532731
 H         3.581002        -0.424507         2.222052
 H         1.896956        -0.989404         2.714353
 H         2.330288        -2.219549        -0.017275
