19
Iteration:  2182
 C        -0.084629        -0.123223        -0.086056
 C         1.343617        -0.139397         0.000802
 O         2.028203         0.151695        -1.272931
 C         3.332546        -0.152754        -0.444667
 C         3.384065         0.991204         0.466368
 C         2.147795         0.745314         1.216843
 O         1.558023         1.801049         1.991008
 C         2.481823        -0.567332         1.880892
 C         2.445079        -1.160915         0.402684
 H        -0.470138         0.058171         0.907740
 H        -0.466753         0.692355        -0.872208
 H        -0.510525        -0.998597        -0.605459
 H         4.227378        -0.533697        -0.916263
 H         4.203129         0.696133         1.170603
 H         3.363711         1.995883        -0.020895
 H         1.237732         1.376357         2.790601
 H         3.401754        -0.579881         2.468712
 H         1.632117        -1.028523         2.421938
 H         2.405436        -2.252771         0.390983
