19
Iteration:  1501charge 0 multiplicity 1
 C        -0.150200        -0.278506        -0.022638
 C         1.416251        -0.139252        -0.029316
 O         2.088092         0.296926        -1.191021
 C         3.296056        -0.097334        -0.400056
 C         3.437019         1.085254         0.547246
 C         2.155080         0.684872         1.272765
 O         1.612682         1.802974         1.873405
 C         2.278085        -0.697706         1.834495
 C         2.456289        -1.220720         0.449250
 H        -0.439678        -0.325601         1.053012
 H        -0.525494         0.677814        -0.489355
 H        -0.504524        -1.206862        -0.692897
 H         4.076190        -0.469465        -1.010148
 H         4.542789         1.035493         0.958577
 H         3.443245         1.972253        -0.110362
 H         1.753374         2.460182         1.210682
 H         3.155797        -0.881141         2.508500
 H         1.330701        -0.926090         2.353070
 H         2.300190        -2.193078        -0.039265
