19
Iteration:   257
 C        -0.092569        -0.187296        -0.174793
 C         1.368771        -0.009734        -0.049042
 O         2.132500         0.180950        -1.248005
 C         3.256381        -0.287153        -0.428818
 C         3.506730         1.035532         0.503259
 C         2.085360         0.771604         1.270369
 O         1.593678         1.888770         2.015945
 C         2.460805        -0.681829         1.889343
 C         2.304386        -1.217930         0.468496
 H        -0.415070        -0.691164         0.757261
 H        -0.714998         0.728120        -0.358197
 H        -0.323817        -1.014649        -0.898526
 H         4.146200        -0.618286        -0.954664
 H         4.269353         1.104141         1.277486
 H         3.548051         1.905664        -0.139691
 H         0.648615         1.984530         1.813110
 H         3.491935        -0.598951         2.198414
 H         1.754361        -0.966480         2.701207
 H         2.309420        -2.242096         0.048026
