19
Iteration:    91
 C        -0.252976        -0.209652        -0.187973
 C         1.290303        -0.125226        -0.096534
 O         2.237853         0.083182        -1.234693
 C         3.351017        -0.239643        -0.433525
 C         3.457398         0.979187         0.532102
 C         2.097474         0.797668         1.193657
 O         1.628109         1.961804         2.028647
 C         2.431554        -0.583627         1.875647
 C         2.373586        -1.158189         0.493926
 H        -0.552044        -0.544727         0.855113
 H        -0.691739         0.780596        -0.456276
 H        -0.620608        -1.012429        -0.892887
 H         4.262133        -0.494455        -1.036074
 H         4.193072         0.867596         1.310250
 H         3.705514         1.951206         0.121103
 H         0.645042         1.997233         2.163395
 H         3.414447        -0.718933         2.331695
 H         1.553854        -0.948222         2.534051
 H         2.271762        -2.339199         0.310762
