19
Iteration:   214
 C        -0.074340        -0.011026        -0.104982
 C         1.418878        -0.162147         0.028509
 O         2.072467         0.228071        -1.091667
 C         3.297632        -0.174559        -0.395436
 C         3.502640         1.064293         0.425382
 C         2.183772         0.707901         1.161030
 O         1.486480         1.818708         1.815722
 C         2.358048        -0.677518         1.915590
 C         2.483313        -1.300976         0.482640
 H        -0.643273        -0.180166         0.855808
 H        -0.229485         1.083533        -0.423197
 H        -0.641339        -0.776321        -0.750485
 H         3.921364        -0.596392        -1.181409
 H         4.455122         0.974292         0.976939
 H         3.334357         1.941909        -0.189765
 H         0.696981         1.479230         2.330391
 H         3.295509        -0.853292         2.518746
 H         1.313861        -1.016474         2.263376
 H         2.528020        -2.372735         0.336451
