19
Iteration:   264
 C        -0.128047        -0.240834        -0.142470
 C         1.375855        -0.108806        -0.019145
 O         2.160701         0.211565        -1.225593
 C         3.322913        -0.297853        -0.378977
 C         3.473635         1.059843         0.489404
 C         2.157846         0.760835         1.198804
 O         1.619603         1.897601         2.037343
 C         2.391354        -0.664347         1.874983
 C         2.282429        -1.144549         0.408041
 H        -0.548928        -0.669292         0.764595
 H        -0.639851         0.663662        -0.312018
 H        -0.398483        -0.920075        -0.925497
 H         4.158494        -0.555392        -1.093543
 H         4.276941         1.154695         1.231603
 H         3.397236         1.884720        -0.238288
 H         0.705092         2.052656         1.900955
 H         3.378691        -0.691189         2.342996
 H         1.584019        -0.949637         2.520147
 H         2.107055        -2.303572         0.132122
