19
Iteration:  4720
 C        -0.178663        -0.290381        -0.000866
 C         1.353715        -0.077230         0.099815
 O         2.015875         0.010737        -1.236010
 C         3.290415        -0.197786        -0.499612
 C         3.448526         1.053176         0.313566
 C         2.222951         0.833052         1.125987
 O         1.502477         1.716585         1.956986
 C         2.520737        -0.435610         1.945622
 C         2.538389        -1.088539         0.520213
 H        -0.652846        -0.328605         1.058616
 H        -0.791787         0.568609        -0.372248
 H        -0.398495        -1.329973        -0.284644
 H         4.235072        -0.485885        -1.154340
 H         4.322577         1.239844         1.101393
 H         3.299491         1.977693        -0.308010
 H         0.874395         2.190844         1.439956
 H         3.436745        -0.429215         2.590457
 H         1.567967        -0.691138         2.430979
 H         2.471050        -2.136868         0.378954
