19
Iteration:  3970
 C        -0.101252        -0.388054         0.027728
 C         1.394399        -0.135332         0.036647
 O         2.087540         0.102465        -1.178583
 C         3.241346        -0.252613        -0.468089
 C         3.370500         1.088732         0.278961
 C         2.118706         0.798876         1.157627
 O         1.500102         1.804360         1.851327
 C         2.511798        -0.445557         1.953749
 C         2.460362        -1.075600         0.565718
 H        -0.475555        -0.817220         1.003001
 H        -0.665522         0.572661         0.030100
 H        -0.214891        -0.970743        -0.812147
 H         4.122998        -0.575577        -1.016171
 H         4.379670         1.239920         0.779104
 H         3.058403         1.854775        -0.431256
 H         2.207912         2.288997         2.242352
 H         3.450657        -0.641107         2.377846
 H         1.610804        -0.621244         2.575911
 H         2.175568        -2.147036         0.330597
