19
Iteration:  1685charge 0 multiplicity 1
 C        -0.131688        -0.131734         0.020805
 C         1.358768        -0.186349         0.005159
 O         2.110170         0.221033        -1.201499
 C         3.266073        -0.066964        -0.446246
 C         3.479361         0.974223         0.576486
 C         2.138763         0.680209         1.191714
 O         1.466519         1.841090         1.781786
 C         2.418305        -0.633071         1.849507
 C         2.470112        -1.209546         0.411826
 H        -0.593848        -0.293731         1.004451
 H        -0.452901         0.791756        -0.379278
 H        -0.594924        -0.842902        -0.760322
 H         4.107465        -0.390949        -1.057475
 H         4.410127         0.832603         1.184501
 H         3.613726         1.995590         0.222318
 H         1.628023         1.915829         2.708784
 H         3.386768        -0.965515         2.329779
 H         1.599624        -1.085383         2.430307
 H         2.674154        -2.288512         0.185739
