19
Iteration:   534
 C        -0.127694         0.058067        -0.096657
 C         1.357028        -0.005305         0.016311
 O         2.106717         0.224902        -1.240203
 C         3.331696        -0.293908        -0.454598
 C         3.502197         0.906580         0.525703
 C         2.138557         0.751066         1.140172
 O         1.335097         1.666202         1.845455
 C         2.489334        -0.558481         1.917193
 C         2.489359        -1.213259         0.528476
 H        -0.616670        -0.120223         0.915067
 H        -0.572703         1.097294        -0.336833
 H        -0.601847        -0.720793        -0.751379
 H         4.187519        -0.481836        -1.196142
 H         4.307645         0.787346         1.303002
 H         3.833110         1.780188        -0.081863
 H         1.665532         1.415414         2.761938
 H         3.476984        -0.769389         2.448599
 H         1.631477        -0.956810         2.508830
 H         2.453856        -2.245346         0.290394
