19
Iteration:  4985
 C        -0.041057        -0.377939         0.191105
 C         1.383683        -0.079414         0.087053
 O         1.998448         0.168182        -1.201818
 C         3.214611        -0.261227        -0.554504
 C         3.393320         0.997822         0.340989
 C         2.115371         0.820177         1.187061
 O         1.444896         1.881427         1.700214
 C         2.605080        -0.505028         1.923645
 C         2.534680        -1.125288         0.549072
 H        -0.348027        -0.836779         1.095675
 H        -0.572816         0.610337         0.256879
 H        -0.257922        -0.993280        -0.701604
 H         4.040981        -0.511020        -1.146109
 H         4.376057         1.202683         0.665612
 H         3.249300         1.883305        -0.374852
 H         1.008547         1.642974         2.509440
 H         3.592588        -0.479791         2.464061
 H         1.821861        -0.928163         2.599855
 H         2.529643        -2.227290         0.427361
