19
Iteration:  2727
 C        -0.117126        -0.083532         0.110693
 C         1.401861        -0.136324         0.083854
 O         2.010752         0.130402        -1.192135
 C         3.243805        -0.189513        -0.472112
 C         3.354011         1.068947         0.456428
 C         2.163220         0.696976         1.205166
 O         1.495370         1.813734         1.634928
 C         2.604876        -0.631291         1.946714
 C         2.570003        -1.181621         0.500333
 H        -0.254760        -0.120006         1.159633
 H        -0.537871         0.950074        -0.125805
 H        -0.851338        -0.771695        -0.361544
 H         4.104862        -0.530141        -1.089067
 H         4.293963         1.432527         0.853854
 H         3.207096         1.896759        -0.256764
 H         0.699803         1.456481         1.996987
 H         3.502247        -0.745248         2.617210
 H         1.667054        -1.117559         2.377902
 H         2.434350        -2.302200         0.235617
