19
Iteration:  4611charge 0 multiplicity 1
 C        -0.158957        -0.346761         0.101754
 C         1.365989        -0.107444         0.061818
 O         2.025205         0.069410        -1.223697
 C         3.318792        -0.204439        -0.458154
 C         3.481669         1.109540         0.263576
 C         2.187055         0.797259         1.169760
 O         1.383805         1.817704         1.817907
 C         2.548093        -0.507020         1.955605
 C         2.454062        -1.119898         0.488534
 H        -0.405887        -0.958318         1.063270
 H        -0.823707         0.536484         0.107068
 H        -0.383805        -1.062265        -0.695820
 H         4.226739        -0.470108        -1.114482
 H         4.461075         1.236556         0.880684
 H         3.598267         1.999755        -0.387316
 H         1.955121         2.299949         2.496367
 H         3.403776        -0.656226         2.601508
 H         1.752905        -0.651586         2.609097
 H         2.307785        -2.144753         0.401536
