19
Iteration:  2579charge 0 multiplicity 1
 C        -0.061503        -0.166980         0.156827
 C         1.367667        -0.084303         0.106476
 O         2.100805         0.196627        -1.241858
 C         3.315370        -0.318114        -0.519004
 C         3.460967         1.039121         0.301755
 C         2.152029         0.779039         1.147045
 O         1.431211         1.807239         1.843394
 C         2.538822        -0.591445         1.942333
 C         2.424068        -1.143166         0.438757
 H        -0.370926        -0.016069         1.238684
 H        -0.529613         0.552951        -0.405339
 H        -0.594245        -1.111142         0.099911
 H         4.229994        -0.700795        -1.068118
 H         4.199943         1.007122         1.150316
 H         3.345268         2.028069        -0.239792
 H         0.536000         1.418308         2.035419
 H         3.511845        -0.648639         2.368441
 H         1.686783        -0.824452         2.530148
 H         2.116147        -2.153094         0.239654
