19
Iteration:   346
 C        -0.110809        -0.074447        -0.142830
 C         1.413993        -0.049864         0.050033
 O         2.138594         0.346496        -1.176450
 C         3.372851        -0.303940        -0.411105
 C         3.497235         0.997955         0.422267
 C         2.164665         0.690844         1.197937
 O         1.405924         1.683871         1.785355
 C         2.441328        -0.677366         1.966573
 C         2.310078        -1.171755         0.527373
 H        -0.580556        -0.234983         0.872138
 H        -0.403537         1.017800        -0.424846
 H        -0.414780        -0.926522        -0.823564
 H         4.085628        -0.628162        -1.132293
 H         4.290299         1.179043         1.176303
 H         3.520006         1.860765        -0.265436
 H         1.559029         1.853003         2.745869
 H         3.482708        -0.666393         2.369297
 H         1.645008        -0.910318         2.700839
 H         2.036821        -2.188541         0.184362
