19
Iteration:  3637
 C        -0.117135        -0.484823         0.079599
 C         1.403964        -0.167413         0.010828
 O         1.962129         0.117611        -1.214880
 C         3.248770        -0.160892        -0.580730
 C         3.434247         1.019779         0.428677
 C         2.082870         0.838086         1.203979
 O         1.681577         2.014110         1.861769
 C         2.404911        -0.519763         1.934349
 C         2.546566        -1.114843         0.517183
 H        -0.408320        -0.527389         1.121116
 H        -0.739673         0.316605        -0.337726
 H        -0.384490        -1.345023        -0.671578
 H         3.997570        -0.488685        -1.339276
 H         4.357359         0.882546         1.044399
 H         3.629698         1.877456        -0.283246
 H         0.907716         1.815278         2.389729
 H         3.347284        -0.646553         2.523157
 H         1.601444        -0.981416         2.440647
 H         2.352216        -2.140516         0.107500
