19
Iteration:  3756
 C         0.011606        -0.196725         0.206021
 C         1.480133        -0.209862         0.018000
 O         2.029251         0.101286        -1.259244
 C         3.287904        -0.216161        -0.539728
 C         3.371858         1.128742         0.339075
 C         2.098600         0.721412         1.191361
 O         1.479112         1.865334         1.721964
 C         2.485108        -0.563904         1.971277
 C         2.497177        -1.132948         0.557365
 H        -0.077474        -0.414901         1.242465
 H        -0.618012         0.632545         0.095707
 H        -0.561028        -0.989946        -0.438937
 H         4.134749        -0.602063        -1.172305
 H         4.204584         1.338926         0.998779
 H         3.137957         2.059333        -0.226743
 H         0.652943         1.774043         2.268003
 H         3.445340        -0.668970         2.566447
 H         1.584236        -0.953592         2.425937
 H         2.186684        -2.227341         0.377440
