19
Iteration:  4081charge 0 multiplicity 1
 C        -0.114830        -0.244452         0.091531
 C         1.357232        -0.131203         0.045935
 O         2.025331         0.036026        -1.238236
 C         3.282154        -0.180180        -0.480501
 C         3.460922         1.086647         0.384423
 C         2.102229         0.799404         1.134278
 O         1.487093         1.771139         1.863725
 C         2.515809        -0.524148         1.940123
 C         2.504499        -1.081173         0.530314
 H        -0.316380        -0.267155         1.173691
 H        -0.659822         0.534536        -0.508040
 H        -0.497767        -1.215303        -0.293149
 H         4.222277        -0.511484        -0.993034
 H         4.317601         0.950320         1.076439
 H         3.602518         2.040275        -0.239192
 H         1.001621         2.403540         1.247593
 H         3.491315        -0.488062         2.423120
 H         1.669185        -1.038965         2.418408
 H         2.676991        -2.244360         0.406308
