19
Iteration:  2230charge 0 multiplicity 1
 C         0.024696        -0.001744        -0.034997
 C         1.428164        -0.092287         0.061479
 O         2.099890         0.144319        -1.180299
 C         3.212496        -0.174220        -0.486811
 C         3.384484         1.020966         0.383430
 C         2.135982         0.728628         1.237709
 O         1.433671         1.712426         1.876623
 C         2.498317        -0.591901         1.916303
 C         2.458710        -1.226419         0.457371
 H        -0.552249        -0.436804         0.841909
 H        -0.287535         1.042743        -0.133927
 H        -0.445385        -0.350839        -1.020480
 H         4.037984        -0.558561        -1.154766
 H         4.270909         1.209352         0.939613
 H         3.196741         1.795830        -0.354764
 H         1.071305         1.413541         2.749341
 H         3.519380        -0.721697         2.410428
 H         1.629535        -0.980843         2.529923
 H         2.316233        -2.299111         0.110551
