19
Iteration:  1909charge 0 multiplicity 1
 C        -0.130733        -0.022341        -0.178933
 C         1.327750        -0.059132         0.014206
 O         2.101859         0.072530        -1.302962
 C         3.280265        -0.144931        -0.466109
 C         3.528118         1.125596         0.507357
 C         2.104103         0.761084         1.249793
 O         1.493855         1.654478         2.062894
 C         2.598481        -0.690323         1.905318
 C         2.342521        -1.186875         0.461477
 H        -0.736792         0.024571         0.711638
 H        -0.376808         0.944484        -0.762405
 H        -0.491063        -0.860594        -0.743083
 H         4.146119        -0.687403        -0.915446
 H         4.371634         0.873505         1.179361
 H         3.595329         2.193754         0.152777
 H         0.690802         1.979210         1.605921
 H         3.626301        -0.534542         2.364618
 H         1.763394        -0.966146         2.648875
 H         2.281838        -2.224458         0.158951
