19
Iteration:  4497
 C        -0.068175        -0.424397         0.156898
 C         1.398450        -0.155581         0.045351
 O         1.989666         0.084838        -1.230774
 C         3.253267        -0.176805        -0.481008
 C         3.440198         1.151320         0.360698
 C         2.188356         0.801278         1.139327
 O         1.544627         1.941246         1.874043
 C         2.478887        -0.584377         1.924938
 C         2.470988        -1.128974         0.498760
 H        -0.609864        -0.467696         1.091343
 H        -0.428440         0.398781        -0.520356
 H        -0.356650        -1.376566        -0.384919
 H         4.016471        -0.471428        -1.171704
 H         4.352861         1.129083         0.886451
 H         3.365736         1.983311        -0.361780
 H         0.635294         2.103351         1.489930
 H         3.388969        -0.618173         2.532696
 H         1.789011        -0.845768         2.722891
 H         2.364067        -2.257707         0.158936
