19
Iteration:  4854charge 0 multiplicity 1
 C        -0.079892        -0.324710         0.084474
 C         1.395555        -0.213485         0.064835
 O         1.926796         0.033967        -1.189088
 C         3.243361        -0.144102        -0.518564
 C         3.413600         1.128356         0.348534
 C         2.147622         0.809272         1.183468
 O         1.580321         1.907509         1.843951
 C         2.516355        -0.515441         1.917026
 C         2.577199        -1.185247         0.518676
 H        -0.458554        -0.451803         1.075694
 H        -0.387176         0.660242        -0.427747
 H        -0.520112        -1.064482        -0.672608
 H         3.890338        -0.474346        -1.274982
 H         4.248079         1.208483         1.055151
 H         3.264257         2.030567        -0.348143
 H         0.653623         1.782559         1.983146
 H         3.359604        -0.522351         2.598089
 H         1.687228        -0.850118         2.520137
 H         2.593954        -2.258656         0.305009
