19
Iteration:   596
 C        -0.213044        -0.201320        -0.094403
 C         1.341143        -0.180412        -0.055600
 O         2.174242         0.186539        -1.285358
 C         3.359736        -0.181504        -0.418484
 C         3.439734         1.006603         0.503965
 C         2.087068         0.771847         1.265567
 O         1.718502         1.837174         1.978671
 C         2.305684        -0.673609         1.881191
 C         2.423975        -1.097205         0.439036
 H        -0.504103        -0.246321         0.961852
 H        -0.453187         0.792524        -0.335335
 H        -0.671163        -0.936551        -0.691565
 H         4.151548        -0.413506        -1.167599
 H         4.188432         1.019674         1.288277
 H         3.372269         1.998602         0.031906
 H         0.727520         2.036329         1.975417
 H         3.149981        -0.851822         2.525872
 H         1.438775        -1.152897         2.267221
 H         2.404631        -2.177649         0.267030
