19
Iteration:  3464
 C        -0.039603        -0.374245         0.077453
 C         1.363319        -0.146988         0.095964
 O         2.049487         0.122342        -1.166623
 C         3.253590        -0.139954        -0.493232
 C         3.410410         1.068099         0.396042
 C         2.095302         0.773917         1.201590
 O         1.588956         1.864544         1.842060
 C         2.463814        -0.552818         1.873873
 C         2.399380        -1.162905         0.480346
 H        -0.594216        -0.584819         0.944717
 H        -0.328739         0.569023        -0.449085
 H        -0.279344        -1.267157        -0.624291
 H         3.928704        -0.571839        -1.187709
 H         4.349538         1.265129         0.943009
 H         3.204343         1.967711        -0.223896
 H         1.908975         2.688191         1.344877
 H         3.353783        -0.527887         2.588342
 H         1.616240        -0.880339         2.422289
 H         2.275978        -2.251784         0.328711
