19
Iteration:  2097charge 0 multiplicity 1
 C        -0.097196        -0.232292        -0.031372
 C         1.426349        -0.091502         0.045559
 O         2.007964         0.253733        -1.235802
 C         3.271083        -0.200094        -0.484850
 C         3.510288         1.015581         0.500287
 C         2.189768         0.753594         1.234123
 O         1.561267         1.822917         1.878268
 C         2.414564        -0.669569         1.919975
 C         2.460659        -1.141197         0.436651
 H        -0.687417        -0.630993         0.746876
 H        -0.388098         0.818367        -0.115043
 H        -0.426385        -0.831103        -0.895827
 H         4.030124        -0.546099        -1.192250
 H         4.350948         1.126364         1.145787
 H         3.421305         1.953994        -0.016387
 H         0.603864         1.512150         1.746817
 H         3.232509        -0.930332         2.622800
 H         1.450741        -0.919611         2.447303
 H         2.213887        -2.206901         0.259223
