19
Iteration:  1951charge 0 multiplicity 1
 C        -0.038903        -0.243069         0.013993
 C         1.414123        -0.127923        -0.004082
 O         2.115336         0.331284        -1.233053
 C         3.280648        -0.126300        -0.553005
 C         3.526967         1.047766         0.529438
 C         2.129102         0.670761         1.189420
 O         1.524807         1.787201         1.957144
 C         2.265415        -0.709132         1.934114
 C         2.423792        -1.183030         0.433558
 H        -0.473120        -0.069815         0.988115
 H        -0.497072         0.502360        -0.681004
 H        -0.403727        -1.181558        -0.292833
 H         4.014288        -0.566744        -1.246778
 H         4.215611         0.848171         1.356573
 H         3.554729         1.990992        -0.047852
 H         1.595588         2.603340         1.490768
 H         3.165867        -0.928227         2.557034
 H         1.282886        -1.102042         2.235136
 H         2.298645        -2.158189         0.011259
