19
Iteration:  2302charge 0 multiplicity 1
 C         0.003866        -0.402892        -0.075532
 C         1.347684        -0.000311         0.083195
 O         2.010397         0.368305        -1.196337
 C         3.174219        -0.249543        -0.452017
 C         3.509183         0.940712         0.456098
 C         2.198133         0.741325         1.265355
 O         1.689232         1.881828         1.849090
 C         2.352321        -0.655160         1.929469
 C         2.371551        -1.115926         0.440234
 H        -0.278755        -0.916137         0.833791
 H        -0.820424         0.374330        -0.241415
 H        -0.154864        -1.142224        -0.834561
 H         3.978040        -0.501165        -1.081952
 H         4.522236         1.014581         1.015327
 H         3.532707         1.803805        -0.253737
 H         0.730409         1.837526         1.882527
 H         3.227648        -0.676667         2.553893
 H         1.387489        -0.966790         2.316323
 H         2.211498        -2.134181         0.080860
