19
Iteration:   625
 C        -0.027563        -0.368896        -0.218089
 C         1.353713        -0.013522        -0.011015
 O         2.059259         0.208356        -1.288687
 C         3.257800        -0.243138        -0.409307
 C         3.544759         0.950377         0.498773
 C         2.138068         0.851801         1.257926
 O         1.745498         1.870953         2.053752
 C         2.238790        -0.593188         1.875516
 C         2.326908        -1.093098         0.435122
 H        -0.333767        -0.803732         0.769063
 H        -0.829882         0.419390        -0.175622
 H        -0.081136        -1.159536        -1.046802
 H         3.941375        -0.575199        -1.092568
 H         4.333568         0.840983         1.247454
 H         3.635344         1.906905        -0.018422
 H         0.834351         1.926802         2.326194
 H         3.128539        -0.681521         2.520271
 H         1.276542        -1.029504         2.338668
 H         2.245648        -2.206061         0.216284
