19
Iteration:  2655
 C        -0.110596        -0.444968        -0.074829
 C         1.331172        -0.126860         0.057462
 O         2.054131         0.148724        -1.171883
 C         3.218627        -0.274295        -0.463721
 C         3.374278         1.082790         0.343903
 C         2.187253         0.811296         1.180826
 O         1.718300         1.956201         1.898415
 C         2.511662        -0.510212         1.944984
 C         2.336798        -1.129571         0.516790
 H        -0.484096        -1.339118         0.551808
 H        -0.767015         0.396110         0.001654
 H        -0.228798        -0.865797        -1.107587
 H         3.922627        -0.557413        -1.250999
 H         4.247235         1.347319         0.989825
 H         3.376131         1.961466        -0.312640
 H         1.340057         1.702125         2.734217
 H         3.388650        -0.635958         2.544986
 H         1.568679        -0.672778         2.433195
 H         2.101024        -2.125074         0.200265
