19
Iteration:  1878
 C        -0.064072         0.022973        -0.184515
 C         1.346504        -0.126139         0.000090
 O         2.078220         0.170861        -1.213774
 C         3.283434        -0.263052        -0.454801
 C         3.377887         1.103924         0.419008
 C         2.089600         0.688489         1.247116
 O         1.518468         1.694088         2.066955
 C         2.536886        -0.674835         1.910682
 C         2.504359        -1.185672         0.458333
 H        -0.632868        -0.300394         0.677860
 H        -0.278957         1.144387        -0.345247
 H        -0.491829        -0.444150        -1.096982
 H         4.121169        -0.799863        -0.950083
 H         4.247626         1.206019         1.072734
 H         3.272061         2.044283        -0.209672
 H         0.831587         2.257514         1.643584
 H         3.361629        -0.614309         2.636975
 H         1.581151        -1.084141         2.403969
 H         2.556604        -2.266085         0.246066
