19
Iteration:  4920
 C        -0.140280        -0.353262         0.147509
 C         1.390100        -0.092845         0.083365
 O         2.036096         0.084425        -1.228294
 C         3.248710        -0.269578        -0.541580
 C         3.443851         1.099437         0.279989
 C         2.172991         0.794189         1.123330
 O         1.394866         1.766466         1.917098
 C         2.557559        -0.464316         1.948673
 C         2.522837        -1.095484         0.531390
 H        -0.582541        -0.296919         1.132101
 H        -0.641369         0.414183        -0.552474
 H        -0.465104        -1.291742        -0.391252
 H         4.023934        -0.442827        -1.203635
 H         4.375135         1.325815         0.807849
 H         3.234684         1.943978        -0.508613
 H         2.028734         2.565710         1.914059
 H         3.485523        -0.379745         2.495449
 H         1.773889        -0.890419         2.557374
 H         2.522036        -2.206683         0.331247
