19
Iteration:  1564
 C        -0.154230         0.027223        -0.148179
 C         1.380815        -0.071906         0.021999
 O         2.111216         0.135169        -1.225979
 C         3.273173        -0.187736        -0.436724
 C         3.499675         1.070179         0.409944
 C         2.147184         0.723331         1.197133
 O         1.457201         1.613461         1.975671
 C         2.501135        -0.642207         1.947409
 C         2.502011        -1.163327         0.537246
 H        -0.725142        -0.073769         0.739863
 H        -0.449136         0.986799        -0.500704
 H        -0.505478        -0.784798        -0.742862
 H         4.147390        -0.367979        -1.094002
 H         4.303070         0.895121         1.046360
 H         3.482909         1.991282        -0.143293
 H         0.635094         1.896427         1.564417
 H         3.340010        -0.799497         2.627738
 H         1.560436        -0.847914         2.523180
 H         2.332108        -2.168552         0.117416
