19
Iteration:  2356charge 0 multiplicity 1
 C        -0.082319        -0.094733        -0.097812
 C         1.370266        -0.139548         0.036799
 O         2.064073         0.070814        -1.277088
 C         3.310749        -0.253053        -0.528900
 C         3.288189         1.126614         0.411893
 C         2.127717         0.700654         1.211999
 O         1.644047         1.870311         2.014614
 C         2.463774        -0.643827         1.880700
 C         2.452576        -1.159695         0.511530
 H        -0.621464         0.043443         0.846536
 H        -0.471869         0.808688        -0.723514
 H        -0.440473        -1.034364        -0.493348
 H         4.128114        -0.593124        -1.105401
 H         4.158389         1.423976         1.127754
 H         3.094456         2.106329        -0.117897
 H         1.201176         1.575119         2.796950
 H         3.453068        -0.858713         2.371869
 H         1.555337        -0.942676         2.455952
 H         2.454357        -2.245766         0.395128
