19
Iteration:  4250charge 0 multiplicity 1
 C        -0.069599        -0.326605         0.041861
 C         1.394174        -0.157043         0.049360
 O         1.932486         0.040218        -1.202655
 C         3.302664        -0.194968        -0.443718
 C         3.421124         1.099059         0.348035
 C         2.136249         0.835784         1.153676
 O         1.511448         1.792931         1.908471
 C         2.602039        -0.468858         1.940364
 C         2.451594        -1.118523         0.541088
 H        -0.634862        -0.217397         1.058372
 H        -0.491744         0.624357        -0.455054
 H        -0.341985        -1.206705        -0.611555
 H         4.007539        -0.685383        -1.073422
 H         4.500439         1.087661         0.778658
 H         3.298756         1.984388        -0.248654
 H         0.933081         2.095657         1.151659
 H         3.691174        -0.465786         2.391853
 H         1.677646        -0.733752         2.540948
 H         2.402808        -2.064270         0.088262
