19
Iteration:   428charge 0 multiplicity 1
 C        -0.076182        -0.172844        -0.148955
 C         1.376666        -0.004090         0.061679
 O         2.112704         0.280353        -1.190208
 C         3.400920        -0.275936        -0.396326
 C         3.560686         0.929149         0.450472
 C         2.189401         0.749098         1.216993
 O         1.483220         1.767707         1.994799
 C         2.348559        -0.671603         1.897383
 C         2.275685        -1.124349         0.450260
 H        -0.536327        -0.543353         0.762179
 H        -0.553665         0.706318        -0.591496
 H        -0.125508        -0.961329        -0.911505
 H         4.163125        -0.630625        -1.131563
 H         4.482869         0.848937         1.052081
 H         3.518064         1.812023        -0.189172
 H         0.982351         2.356129         1.353541
 H         3.167373        -0.717034         2.630170
 H         1.431484        -0.981184         2.448164
 H         2.036999        -2.029496        -0.187628
