19
Iteration:   455
 C        -0.090901        -0.278541        -0.228629
 C         1.365140        -0.037223        -0.052763
 O         2.042400         0.344364        -1.251589
 C         3.301993        -0.249446        -0.481778
 C         3.583398         0.888167         0.606438
 C         2.170468         0.774108         1.199410
 O         1.568321         1.800989         2.019473
 C         2.393566        -0.584337         1.908466
 C         2.303145        -1.164336         0.548574
 H        -0.468562        -0.718515         0.709407
 H        -0.695214         0.620448        -0.424972
 H        -0.248230        -0.939454        -1.080299
 H         3.984979        -0.571076        -1.245211
 H         4.253579         0.353302         1.277645
 H         3.995785         1.864170         0.308713
 H         1.114538         2.430291         1.388406
 H         3.224899        -0.590882         2.617913
 H         1.506564        -0.974869         2.394588
 H         2.246546        -2.191807         0.250042
