19
Iteration:     9charge 0 multiplicity 1
 C        -0.057187        -0.072480        -0.096587
 C         1.422645        -0.039165        -0.025436
 O         2.078524         0.163278        -1.187717
 C         3.330378        -0.270168        -0.355653
 C         3.462939         0.963929         0.556294
 C         2.048178         0.713347         1.135566
 O         1.485950         1.784538         1.735756
 C         2.418248        -0.612093         1.934968
 C         2.415933        -1.160651         0.489612
 H        -0.474352        -0.315198         0.857839
 H        -0.511051         0.872944        -0.338168
 H        -0.422238        -0.848071        -0.737252
 H         4.157196        -0.431003        -1.046280
 H         4.044533         0.758265         1.502725
 H         3.571889         1.980231         0.075414
 H         2.053345         2.037864         2.449678
 H         3.353379        -0.564364         2.509396
 H         1.610737        -1.019834         2.400357
 H         2.094851        -2.130940         0.355298
