19
Iteration:  1899
 C        -0.148929         0.015342        -0.196349
 C         1.369072        -0.112663         0.004707
 O         2.104955         0.038522        -1.281708
 C         3.310915        -0.118258        -0.472617
 C         3.440435         1.051055         0.536028
 C         2.168507         0.685677         1.277744
 O         1.463936         1.701841         2.089008
 C         2.550200        -0.589447         1.876262
 C         2.348243        -1.211117         0.447640
 H        -0.697647        -0.050380         0.730792
 H        -0.275228         1.088654        -0.667510
 H        -0.536944        -0.652834        -0.979451
 H         4.279649        -0.122240        -1.065004
 H         4.437014         0.814225         0.921718
 H         3.556820         2.014319        -0.065838
 H         0.681003         2.114756         1.775903
 H         3.663654        -0.605200         2.132723
 H         2.051384        -1.043249         2.843664
 H         2.280541        -2.283015         0.256985
