19
Iteration:  4213charge 0 multiplicity 1
 C        -0.128912        -0.269823         0.154779
 C         1.419094        -0.208642         0.017641
 O         2.015234         0.101369        -1.234104
 C         3.295057        -0.213380        -0.466889
 C         3.388571         1.058332         0.344675
 C         2.162472         0.731546         1.186063
 O         1.502629         1.920358         1.793342
 C         2.507956        -0.527134         1.931702
 C         2.570168        -1.108205         0.501940
 H        -0.435678        -0.604998         1.113633
 H        -0.548630         0.697098        -0.100662
 H        -0.557958        -1.077930        -0.544793
 H         4.173916        -0.592360        -1.027315
 H         4.321785         1.162993         0.919808
 H         3.239698         2.004180        -0.311386
 H         0.528685         1.791589         2.003673
 H         3.347706        -0.485435         2.578489
 H         1.743062        -0.791372         2.639218
 H         2.340839        -2.221833         0.209432
