19
Iteration:  3118
 C        -0.083116        -0.354559         0.074009
 C         1.351637        -0.055271         0.049804
 O         2.054773         0.008171        -1.189955
 C         3.279395        -0.229745        -0.494719
 C         3.441460         1.082224         0.255670
 C         2.144471         0.840693         1.116473
 O         1.507658         1.781084         1.968212
 C         2.452069        -0.467272         1.878052
 C         2.455495        -1.094011         0.580085
 H        -0.562579        -0.713206         0.938041
 H        -0.709051         0.540087        -0.134685
 H        -0.291448        -1.050011        -0.771579
 H         4.056597        -0.413029        -1.230849
 H         4.364169         1.263234         0.798508
 H         3.366129         1.759427        -0.612052
 H         2.090915         2.547321         2.223681
 H         3.334714        -0.480602         2.564427
 H         1.661893        -0.828022         2.478140
 H         2.196065        -2.143765         0.258672
