19
Iteration:  1000
 C         0.017494        -0.338934        -0.287033
 C         1.434662        -0.027927         0.083388
 O         2.005269         0.174487        -1.195898
 C         3.182150        -0.231848        -0.466181
 C         3.519612         1.027939         0.395334
 C         2.194180         0.809478         1.253475
 O         1.701703         1.849905         1.998971
 C         2.298892        -0.574141         1.965400
 C         2.363261        -1.150449         0.503674
 H        -0.573923        -0.769912         0.547080
 H        -0.608816         0.562894        -0.479536
 H        -0.208995        -0.919386        -1.245903
 H         3.805848        -0.678163        -1.198895
 H         4.390203         1.101646         1.065512
 H         3.465363         1.886718        -0.286533
 H         0.824418         1.702337         2.366665
 H         3.161942        -0.725359         2.739534
 H         1.321563        -0.783350         2.412873
 H         2.006774        -2.150569         0.332446
