19
Iteration:  2758charge 0 multiplicity 1
 C        -0.066184        -0.306172         0.053298
 C         1.413337        -0.044154         0.069744
 O         1.977992         0.136793        -1.173195
 C         3.233353        -0.204800        -0.507381
 C         3.521301         1.024684         0.388952
 C         2.145058         0.798768         1.143183
 O         1.509369         1.847697         1.848721
 C         2.512537        -0.575534         1.902963
 C         2.448732        -1.105174         0.512384
 H        -0.263472        -0.121138         1.093394
 H        -0.735067         0.380224        -0.509871
 H        -0.290364        -1.357310        -0.103684
 H         3.958827        -0.631971        -1.255013
 H         4.363433         0.784573         1.053016
 H         3.645474         1.921754        -0.258234
 H         0.514964         1.828578         1.699504
 H         3.427590        -0.640345         2.509956
 H         1.718365        -0.970356         2.520614
 H         2.372588        -2.209604         0.156779
