19
Iteration:  2195charge 0 multiplicity 1
 C        -0.198836        -0.055714        -0.117936
 C         1.378475        -0.124093        -0.015521
 O         2.137690         0.079505        -1.210202
 C         3.237842        -0.180921        -0.491128
 C         3.459673         1.061662         0.464931
 C         2.101540         0.750130         1.232499
 O         1.503384         1.735583         1.967431
 C         2.542742        -0.584914         1.856084
 C         2.427069        -1.169246         0.498830
 H        -0.696442         0.017173         0.827541
 H        -0.419618         0.974517        -0.601758
 H        -0.672841        -0.965810        -0.641688
 H         4.062814        -0.334222        -1.184049
 H         4.348567         1.006766         1.085806
 H         3.579479         1.976097        -0.100719
 H         1.274532         1.368584         2.860480
 H         3.557648        -0.617086         2.292452
 H         1.849063        -0.899495         2.685451
 H         2.482971        -2.155401        -0.000702
