19
Iteration:  1169charge 0 multiplicity 1
 C        -0.125131        -0.265569        -0.228824
 C         1.315188        -0.057498         0.040903
 O         2.073495         0.239658        -1.250754
 C         3.288930        -0.202026        -0.467330
 C         3.529858         0.964688         0.430452
 C         2.110289         0.758162         1.208958
 O         1.644982         1.844980         1.937281
 C         2.340870        -0.556741         1.988263
 C         2.428433        -1.172242         0.554419
 H        -0.733264        -0.486785         0.624142
 H        -0.638180         0.579129        -0.580201
 H        -0.204342        -1.071615        -0.893649
 H         4.110140        -0.534112        -1.203924
 H         4.430301         0.778720         1.073585
 H         3.657389         1.921714        -0.118719
 H         1.469448         1.401301         2.818638
 H         3.054264        -0.474476         2.727591
 H         1.449464        -1.059535         2.356521
 H         2.258088        -2.243477         0.360431
