19
Iteration:  2470
 C        -0.094507        -0.465709         0.008148
 C         1.356105        -0.057906        -0.041946
 O         1.964585         0.200834        -1.287614
 C         3.209394        -0.243131        -0.489537
 C         3.484401         0.965715         0.448011
 C         2.096868         0.845494         1.207205
 O         1.743640         1.979568         1.963452
 C         2.418009        -0.593813         1.899736
 C         2.475442        -1.094923         0.486596
 H        -0.256964        -1.269714         0.808180
 H        -0.748858         0.358105         0.230395
 H        -0.389348        -0.909222        -0.969660
 H         4.117950        -0.498150        -1.142519
 H         4.388154         0.925566         1.101500
 H         3.584856         1.986665        -0.001251
 H         0.798750         1.949239         2.083426
 H         3.231164        -0.727194         2.640879
 H         1.454867        -1.024405         2.314355
 H         2.152980        -2.153041         0.371597
