19
Iteration:  2931charge 0 multiplicity 1
 C        -0.130337        -0.290423         0.083106
 C         1.375614        -0.118252        -0.002667
 O         1.987641         0.100848        -1.284949
 C         3.175596        -0.247962        -0.455287
 C         3.490642         1.046067         0.429496
 C         2.158536         0.763521         1.259117
 O         1.446632         1.855614         1.786398
 C         2.558025        -0.495192         1.933162
 C         2.510734        -1.139503         0.503036
 H        -0.398040        -0.431900         1.130125
 H        -0.692411         0.540878        -0.458129
 H        -0.304382        -1.235090        -0.476538
 H         4.006994        -0.520375        -1.179396
 H         4.411732         0.940541         1.010203
 H         3.401547         1.938419        -0.194565
 H         2.002288         2.517027         2.193472
 H         3.555070        -0.375653         2.449903
 H         1.878378        -0.856939         2.684750
 H         2.519937        -2.261073         0.283683
