19
Iteration:  4158charge 0 multiplicity 1
 C        -0.103708        -0.372330         0.058145
 C         1.386029        -0.134156        -0.016005
 O         2.007915         0.135631        -1.192013
 C         3.214716        -0.219256        -0.483842
 C         3.459374         1.001491         0.369083
 C         2.107207         0.776921         1.111919
 O         1.432970         1.896433         1.812800
 C         2.561364        -0.502287         1.911782
 C         2.505336        -1.097818         0.597653
 H        -0.452012        -0.790249         0.966462
 H        -0.598407         0.586848         0.058338
 H        -0.313359        -1.017513        -0.852835
 H         4.015485        -0.653483        -1.129299
 H         4.371356         0.911102         0.981833
 H         3.525291         2.009348        -0.201340
 H         1.956913         2.154990         2.612670
 H         3.491006        -0.281336         2.441440
 H         1.768190        -0.816084         2.633331
 H         2.612875        -2.265062         0.436448
