19
Iteration:  4570
 C        -0.096270        -0.267105         0.034623
 C         1.407918        -0.135124         0.203575
 O         1.976659         0.035597        -1.237098
 C         3.338125        -0.118197        -0.566556
 C         3.345307         1.065818         0.283830
 C         2.110247         0.760488         1.188542
 O         1.489436         1.869767         1.751577
 C         2.526135        -0.512827         1.990388
 C         2.565133        -1.196261         0.572318
 H        -0.371175        -0.821913         0.907323
 H        -0.554386         0.781034         0.168086
 H        -0.697128        -0.700916        -0.817859
 H         4.192394        -0.462616        -1.295645
 H         4.215625         1.216027         1.022040
 H         3.143747         1.985929        -0.398156
 H         1.403962         1.869743         2.688086
 H         3.506979        -0.486393         2.635141
 H         1.783854        -1.081284         2.707758
 H         2.563540        -2.168532         0.135179
