19
Iteration:   605charge 0 multiplicity 1
 C        -0.209583        -0.294272        -0.070317
 C         1.368473        -0.156522        -0.131521
 O         2.177118         0.184587        -1.245890
 C         3.341376        -0.158918        -0.500128
 C         3.421221         0.991524         0.548191
 C         2.155795         0.774967         1.187615
 O         1.736896         1.898195         2.074110
 C         2.288927        -0.621712         1.879626
 C         2.388752        -1.129269         0.440320
 H        -0.780332        -0.442198         0.850674
 H        -0.604800         0.687344        -0.359213
 H        -0.696129        -0.923505        -0.803003
 H         4.232340        -0.470653        -0.959836
 H         4.210397         0.880966         1.266340
 H         3.587218         1.906316        -0.010757
 H         0.726743         1.950528         1.957100
 H         3.063591        -0.814587         2.601400
 H         1.290618        -0.937704         2.232800
 H         2.310340        -2.245745         0.201913
