19
Iteration:  4752
 C        -0.080833        -0.278034         0.019952
 C         1.379042        -0.259081         0.151650
 O         2.045446         0.100316        -1.208552
 C         3.256004        -0.204500        -0.488338
 C         3.298595         1.042701         0.377531
 C         2.152900         0.812180         1.171986
 O         1.439575         1.927986         1.899428
 C         2.613440        -0.534731         1.897188
 C         2.511415        -1.222757         0.455808
 H        -0.338536        -0.544203         1.144426
 H        -0.448412         0.769472        -0.141314
 H        -0.557449        -0.945551        -0.742869
 H         4.179744        -0.447722        -1.185432
 H         4.233634         1.333112         1.035641
 H         3.206074         1.907344        -0.316699
 H         1.517464         2.671528         1.206916
 H         3.643114        -0.510110         2.422372
 H         1.826423        -0.902389         2.636668
 H         2.411755        -2.279897         0.333404
