19
Iteration:  2977charge 0 multiplicity 1
 C        -0.169372        -0.499899        -0.211517
 C         1.354553        -0.168366         0.089524
 O         1.924577         0.074162        -1.268242
 C         3.204568        -0.204513        -0.460146
 C         3.378991         1.082776         0.350024
 C         2.152047         0.866703         1.252924
 O         1.763022         1.926883         2.038557
 C         2.509276        -0.491344         1.947336
 C         2.470176        -1.110215         0.585900
 H        -0.796611        -0.494682         0.638676
 H        -0.475564         0.389434        -0.835129
 H        -0.316520        -1.451563        -0.808595
 H         4.129368        -0.564239        -0.976923
 H         4.312539         1.177225         0.837012
 H         3.113239         1.867301        -0.354673
 H         1.767268         2.750072         1.448259
 H         3.337591        -0.451958         2.657296
 H         1.704784        -0.899619         2.511437
 H         2.426694        -2.260064         0.392885
