19
Iteration:  1869
 C        -0.146627        -0.024842        -0.135545
 C         1.443701        -0.091113         0.091973
 O         2.084008         0.216234        -1.229395
 C         3.298349        -0.228126        -0.391463
 C         3.397124         1.143450         0.405382
 C         2.140581         0.634296         1.181501
 O         1.537688         1.653523         2.011731
 C         2.404102        -0.643403         1.914219
 C         2.486094        -1.212019         0.455208
 H        -0.698761        -0.406224         0.717914
 H        -0.285243         1.054964        -0.177322
 H        -0.294132        -0.540622        -1.148001
 H         4.136035        -0.504165        -1.055341
 H         4.369032         1.192539         0.864725
 H         3.306582         1.936224        -0.367023
 H         1.048125         2.428199         1.627236
 H         3.134620        -0.732256         2.655277
 H         1.572881        -1.189488         2.358059
 H         2.493071        -2.321870         0.234426
