19
Iteration:  2833charge 0 multiplicity 1
 C        -0.174090        -0.376537        -0.113758
 C         1.350314        -0.161287         0.051227
 O         2.007804         0.061756        -1.219943
 C         3.204680        -0.147881        -0.543181
 C         3.419348         1.108277         0.308230
 C         2.145124         0.809531         1.209029
 O         1.590588         1.865160         1.940533
 C         2.545477        -0.512212         2.042845
 C         2.452628        -1.133624         0.581021
 H        -0.513070        -0.859039         0.815411
 H        -0.644327         0.615501        -0.227730
 H        -0.343451        -0.988053        -0.986152
 H         4.038292        -0.466551        -1.230196
 H         4.325777         0.928360         0.847393
 H         3.337738         1.895828        -0.442094
 H         2.218555         2.562476         2.024249
 H         3.497676        -0.481960         2.573188
 H         1.891565        -1.035536         2.678713
 H         2.294778        -2.256642         0.468781
