19
Iteration:  1749charge 0 multiplicity 1
 C        -0.146221        -0.029565        -0.132830
 C         1.366650        -0.119564        -0.069892
 O         2.107728         0.166743        -1.296746
 C         3.321234        -0.251545        -0.444619
 C         3.433251         1.042090         0.481344
 C         2.078300         0.732454         1.248636
 O         1.419408         1.728079         2.002646
 C         2.573348        -0.569773         1.899857
 C         2.367336        -1.209701         0.485493
 H        -0.612984        -0.107403         0.831917
 H        -0.349792         0.965605        -0.514084
 H        -0.539179        -0.861262        -0.773897
 H         4.332763        -0.575875        -0.797520
 H         4.248264         0.932704         1.184571
 H         3.401763         1.991220        -0.074100
 H         2.024630         1.950763         2.708997
 H         3.596937        -0.787382         2.199398
 H         1.920912        -0.956547         2.687511
 H         2.610529        -2.224858         0.105411
