19
Iteration:   448
 C        -0.145717        -0.291036        -0.229832
 C         1.405091         0.045169         0.010403
 O         2.093553         0.308055        -1.237985
 C         3.213541        -0.264860        -0.502128
 C         3.647287         0.901269         0.570353
 C         2.188554         0.754539         1.264890
 O         1.514864         1.792648         2.016879
 C         2.376958        -0.546585         1.885825
 C         2.316609        -1.138570         0.518585
 H        -0.506729        -0.795046         0.733577
 H        -0.644286         0.736752        -0.528843
 H        -0.183607        -1.048069        -1.089236
 H         4.000754        -0.648796        -1.248731
 H         4.390495         0.395945         1.267027
 H         4.095286         1.836057         0.137424
 H         1.023860         2.294540         1.367356
 H         3.279240        -0.877485         2.556323
 H         1.466132        -1.050563         2.334266
 H         2.322107        -2.182037         0.273294
