19
Iteration:  4574
 C        -0.091067        -0.265168         0.053631
 C         1.396686        -0.170613         0.181351
 O         1.976692         0.039703        -1.254794
 C         3.349193        -0.125463        -0.556725
 C         3.357311         1.073429         0.289963
 C         2.081201         0.729747         1.186536
 O         1.478926         1.895641         1.758949
 C         2.550893        -0.489170         2.001732
 C         2.553538        -1.180665         0.548273
 H        -0.349733        -0.840725         0.947766
 H        -0.486285         0.738288         0.164113
 H        -0.592533        -0.669720        -0.833165
 H         4.172509        -0.334573        -1.138274
 H         4.042234         1.053135         1.055969
 H         3.223453         1.909457        -0.341377
 H         1.590918         1.799016         2.759482
 H         3.525938        -0.447868         2.487760
 H         1.762622        -0.957293         2.680789
 H         2.450759        -2.300254         0.156117
