19
Iteration:  1140charge 0 multiplicity 1
 C        -0.078685        -0.314780        -0.279388
 C         1.296360        -0.147208        -0.001803
 O         2.115028         0.112644        -1.230385
 C         3.243206        -0.197575        -0.394549
 C         3.412335         1.083011         0.452500
 C         2.211080         0.811229         1.339774
 O         1.725139         1.957889         2.004224
 C         2.303973        -0.624067         1.872651
 C         2.329726        -1.157922         0.451001
 H        -0.611534        -0.722964         0.683234
 H        -0.646350         0.657729        -0.556500
 H        -0.199473        -1.012534        -1.197324
 H         4.031913        -0.617774        -0.941743
 H         4.445708         1.137893         0.855557
 H         3.404986         2.078752        -0.021329
 H         2.006861         1.795338         2.896878
 H         3.054990        -0.764983         2.758195
 H         1.346400        -1.146272         2.212140
 H         2.119181        -2.178729         0.121974
