19
Iteration:  1783
 C        -0.054069        -0.211844        -0.114022
 C         1.419638        -0.087555         0.095039
 O         1.961236         0.298891        -1.188843
 C         3.353792        -0.142291        -0.452209
 C         3.474328         1.011184         0.470559
 C         2.212784         0.717064         1.249575
 O         1.507174         1.806350         1.863373
 C         2.327758        -0.755059         1.928683
 C         2.414559        -1.173433         0.432656
 H        -0.670063        -0.476983         0.740750
 H        -0.491414         0.632095        -0.556499
 H        -0.245600        -0.980802        -0.934506
 H         4.051237        -0.520966        -1.195751
 H         4.444324         1.008501         0.978578
 H         3.341948         2.022557         0.110115
 H         2.251769         2.310397         2.134897
 H         3.065541        -1.101809         2.670556
 H         1.305934        -0.865966         2.284198
 H         2.666621        -2.223981         0.128242
