19
Iteration:  2248
 C        -0.138537        -0.061252         0.052908
 C         1.413440        -0.161403        -0.002824
 O         1.999970         0.172842        -1.279314
 C         3.416319        -0.239037        -0.498370
 C         3.457248         1.093402         0.480046
 C         2.135905         0.699540         1.204025
 O         1.503417         1.810976         1.849817
 C         2.449644        -0.657489         1.893385
 C         2.467148        -1.164504         0.485698
 H        -0.582370        -0.628328         0.818936
 H        -0.563255         0.987452         0.139635
 H        -0.564281        -0.378535        -0.877420
 H         4.264121        -0.443337        -1.109658
 H         4.286633         0.895804         1.178018
 H         3.367719         2.062528         0.013965
 H         0.986682         1.356474         2.544903
 H         3.242154        -0.644590         2.606739
 H         1.591701        -1.064284         2.433889
 H         2.511881        -2.214349         0.208173
