19
Iteration:   356charge 0 multiplicity 1
 C        -0.009672        -0.017841        -0.095788
 C         1.402305        -0.064497         0.041366
 O         2.145353         0.246499        -1.185908
 C         3.281982        -0.233005        -0.418461
 C         3.459008         0.982826         0.446552
 C         2.193846         0.714015         1.261165
 O         1.351801         1.656756         1.816768
 C         2.437914        -0.586558         1.939224
 C         2.349388        -1.201615         0.426297
 H        -0.570822        -0.136567         0.847856
 H        -0.218915         0.990548        -0.595111
 H        -0.368873        -0.737636        -0.879214
 H         4.088158        -0.637772        -0.994608
 H         4.398171         0.898243         0.998519
 H         3.409775         1.853576        -0.215534
 H         1.815940         1.949785         2.664165
 H         3.353040        -0.805916         2.512985
 H         1.586547        -0.833928         2.597491
 H         2.176400        -2.334441         0.235506
