19
Iteration:  4229charge 0 multiplicity 1
 C        -0.149648        -0.301851         0.088245
 C         1.364501        -0.115517         0.115318
 O         2.074071         0.065838        -1.269281
 C         3.288707        -0.217720        -0.554324
 C         3.395274         1.058387         0.362817
 C         2.073347         0.832504         1.157620
 O         1.515848         1.876013         1.867538
 C         2.588712        -0.479057         1.921755
 C         2.501945        -1.215944         0.549794
 H        -0.549571        -0.284848         1.172905
 H        -0.598054         0.719127        -0.128902
 H        -0.427587        -1.158668        -0.543597
 H         4.048734        -0.453110        -1.285796
 H         4.250078         1.206805         1.077870
 H         3.435193         1.949553        -0.207551
 H         0.577990         1.828308         1.546138
 H         3.595693        -0.484929         2.509253
 H         1.806589        -1.126180         2.489174
 H         2.676689        -2.215292         0.573088
