19
Iteration:  4750
 C        -0.069347        -0.272710         0.011927
 C         1.378784        -0.270193         0.133957
 O         2.044164         0.094026        -1.217518
 C         3.244186        -0.193982        -0.479925
 C         3.317417         1.048173         0.366606
 C         2.151897         0.810150         1.167265
 O         1.443706         1.925692         1.908987
 C         2.623088        -0.528973         1.904218
 C         2.491187        -1.214993         0.460858
 H        -0.380035        -0.517037         1.126715
 H        -0.418287         0.739934        -0.105160
 H        -0.526846        -0.983139        -0.659899
 H         4.138521        -0.437600        -1.114500
 H         4.172963         1.325257         1.023766
 H         3.238912         1.919455        -0.215647
 H         1.463893         2.626571         1.195286
 H         3.664491        -0.458575         2.403397
 H         1.809849        -0.948789         2.640993
 H         2.385922        -2.336751         0.337452
