19
Iteration:  3497charge 0 multiplicity 1
 C        -0.167205        -0.475681         0.014693
 C         1.372047        -0.140877         0.043022
 O         2.014660         0.172878        -1.271073
 C         3.192259        -0.126249        -0.542194
 C         3.529482         0.991408         0.414205
 C         2.209725         0.786495         1.223210
 O         1.478724         1.914007         1.821922
 C         2.551983        -0.495915         1.994834
 C         2.411105        -1.154063         0.528987
 H        -0.583176        -0.583054         0.985976
 H        -0.633905         0.493026        -0.275189
 H        -0.360176        -1.251959        -0.786919
 H         3.906737        -0.530232        -1.251542
 H         4.478771         0.813359         0.952386
 H         3.543979         1.976866        -0.099869
 H         2.163581         2.380893         2.365237
 H         3.429731        -0.488202         2.720216
 H         1.645275        -0.790996         2.488118
 H         2.321644        -2.247626         0.433278
