19
Iteration:  2664
 C        -0.114022        -0.428817        -0.056449
 C         1.337674        -0.079044         0.116375
 O         2.049269         0.124038        -1.221976
 C         3.244609        -0.184852        -0.447442
 C         3.478780         1.097755         0.242921
 C         2.159349         0.816811         1.133012
 O         1.668628         1.871188         1.906433
 C         2.453203        -0.536713         1.968357
 C         2.343225        -1.127750         0.545654
 H        -0.457069        -1.222731         0.697991
 H        -0.737608         0.510796         0.109200
 H        -0.095438        -0.639709        -1.187292
 H         4.131182        -0.648070        -0.939293
 H         4.359180         1.310629         0.913180
 H         3.155778         1.835117        -0.539041
 H         1.366323         1.581540         2.751213
 H         3.389134        -0.647335         2.571508
 H         1.645160        -0.763815         2.762291
 H         1.934485        -2.142241         0.348449
