19
Iteration:  3121charge 0 multiplicity 1
 C        -0.122322        -0.367276         0.057476
 C         1.330314        -0.012406         0.069418
 O         2.056312        -0.002975        -1.209504
 C         3.324184        -0.246809        -0.509552
 C         3.437107         1.081698         0.267642
 C         2.130132         0.851881         1.116920
 O         1.509345         1.783141         1.985869
 C         2.483895        -0.455666         1.869831
 C         2.455729        -1.097035         0.573941
 H        -0.568745        -0.820118         1.036350
 H        -0.700188         0.492906        -0.231060
 H        -0.229996        -1.078513        -0.739093
 H         4.041156        -0.485185        -1.309126
 H         4.360047         1.117200         0.838139
 H         3.360893         1.840674        -0.506801
 H         2.131392         2.516150         2.209590
 H         3.272485        -0.480607         2.551129
 H         1.613196        -0.751023         2.517874
 H         2.204248        -2.111005         0.338566
