19
Iteration:  3377
 C        -0.224867        -0.207578         0.094671
 C         1.350167        -0.146717         0.122567
 O         2.071350         0.071116        -1.202648
 C         3.338456        -0.217302        -0.490667
 C         3.369472         1.036660         0.378357
 C         2.102658         0.745703         1.199400
 O         1.450199         1.859932         1.828211
 C         2.634463        -0.576789         1.891324
 C         2.529180        -1.166954         0.478606
 H        -0.648991        -0.255971         1.064575
 H        -0.573595         0.804577        -0.278368
 H        -0.544372        -1.021156        -0.672798
 H         4.168746        -0.582871        -1.037401
 H         4.162147         1.127733         1.142770
 H         3.388825         2.000680        -0.172896
 H         1.445718         2.674591         1.277640
 H         3.649366        -0.517706         2.399037
 H         1.864681        -0.753043         2.580402
 H         2.551298        -2.207105         0.072532
