19
Iteration:  1068
 C        -0.013171         0.044120         0.096588
 C         1.440097        -0.060217         0.067236
 O         2.106093         0.179529        -1.198926
 C         3.283820        -0.244708        -0.504574
 C         3.510428         1.011366         0.502868
 C         2.121244         0.660077         1.265179
 O         1.379544         1.782268         1.652791
 C         2.390206        -0.713598         1.952694
 C         2.486445        -1.197530         0.444308
 H        -0.411775        -0.061932         1.100208
 H        -0.316154         1.045102        -0.339753
 H        -0.612407        -0.592364        -0.559895
 H         4.171592        -0.466899        -1.229507
 H         4.481154         1.004763         1.058554
 H         3.535734         1.913288        -0.141660
 H         0.814225         1.651927         2.401288
 H         3.220324        -0.701998         2.681505
 H         1.444816        -1.182046         2.259266
 H         2.281881        -2.215313         0.083009
