19
Iteration:  1540charge 0 multiplicity 1
 C        -0.035963        -0.064298        -0.036128
 C         1.424280        -0.083106        -0.025458
 O         2.074655         0.183005        -1.258833
 C         3.285539        -0.267903        -0.447348
 C         3.592445         0.984808         0.499879
 C         2.135192         0.784415         1.239445
 O         1.356208         1.698345         2.006945
 C         2.429021        -0.550885         1.820108
 C         2.446604        -1.180055         0.420020
 H        -0.450748         0.083035         0.946444
 H        -0.363253         0.869274        -0.494273
 H        -0.529362        -0.892152        -0.346788
 H         4.188742        -0.506201        -1.128167
 H         4.280852         0.639528         1.184652
 H         3.619226         2.032937         0.209080
 H         0.515129         1.878200         1.461210
 H         3.422610        -0.588405         2.226723
 H         1.786300        -1.042612         2.574229
 H         2.317637        -2.273349         0.224906
