19
Iteration:  4993charge 0 multiplicity 1
 C        -0.006216        -0.335635         0.166991
 C         1.441289        -0.155107         0.138085
 O         1.958427         0.119113        -1.230830
 C         3.212613        -0.186601        -0.511461
 C         3.412378         1.046482         0.307901
 C         2.115738         0.796404         1.148139
 O         1.449227         1.914320         1.754530
 C         2.590582        -0.490883         1.946244
 C         2.501828        -1.134533         0.523065
 H        -0.180937        -0.991442         0.991088
 H        -0.678289         0.479714         0.068932
 H        -0.373242        -0.912780        -0.716241
 H         3.938075        -0.743709        -1.196734
 H         4.486361         1.040414         0.787435
 H         3.370623         1.890153        -0.343335
 H         0.881619         1.490547         2.429916
 H         3.639159        -0.424603         2.424534
 H         1.847678        -0.931848         2.677364
 H         2.330626        -2.123008         0.336734
