19
Iteration:  4705charge 0 multiplicity 1
 C        -0.076182        -0.318059         0.083313
 C         1.413323        -0.170081         0.067170
 O         2.043829         0.097434        -1.216381
 C         3.276961        -0.237640        -0.507102
 C         3.466311         1.138139         0.240065
 C         2.115442         0.841231         1.164282
 O         1.473011         1.774729         2.008907
 C         2.491362        -0.458861         1.889757
 C         2.477468        -1.155628         0.535445
 H        -0.569488        -0.157778         1.083343
 H        -0.377897         0.439729        -0.642731
 H        -0.325581        -1.289538        -0.357635
 H         3.937137        -0.689569        -1.197027
 H         4.439699         1.148496         0.698297
 H         3.543634         1.949479        -0.445072
 H         0.947114         2.356618         1.430622
 H         3.280166        -0.465117         2.741255
 H         1.506239        -0.833289         2.451148
 H         2.381120        -2.305091         0.362102
