19
Iteration:  3167charge 0 multiplicity 1
 C        -0.127336        -0.412618        -0.059046
 C         1.334429        -0.209777         0.144210
 O         1.970842         0.139107        -1.140316
 C         3.279618        -0.161681        -0.520677
 C         3.364107         1.143839         0.365760
 C         2.168189         0.746822         1.222383
 O         1.624446         1.985159         1.843661
 C         2.505380        -0.583923         1.904519
 C         2.471004        -1.200850         0.513980
 H        -0.686702        -0.473893         0.948829
 H        -0.699430         0.347379        -0.621921
 H        -0.350863        -1.395384        -0.503663
 H         4.189771        -0.494777        -1.103091
 H         4.231531         1.218017         1.067631
 H         3.216229         2.044350        -0.274136
 H         2.128353         2.709748         1.505778
 H         3.347866        -0.763174         2.572127
 H         1.655352        -0.999250         2.527043
 H         2.502152        -2.259941         0.251130
