19
Iteration:  3175
 C        -0.150913        -0.382914         0.003404
 C         1.325295        -0.128657         0.197552
 O         2.014990         0.164734        -1.194009
 C         3.206703        -0.205730        -0.489001
 C         3.354257         1.138942         0.397150
 C         2.131415         0.746650         1.185574
 O         1.641805         1.911827         1.814149
 C         2.492289        -0.600866         1.958116
 C         2.584015        -1.190989         0.494777
 H        -0.763216        -0.521311         0.950231
 H        -0.441546         0.352706        -0.697542
 H        -0.134607        -1.314513        -0.506414
 H         3.935279        -0.598808        -1.210212
 H         4.178532         1.362654         1.039230
 H         3.090984         1.850721        -0.365511
 H         2.015581         2.622256         1.287781
 H         3.244951        -0.493538         2.687686
 H         1.545080        -1.052548         2.341688
 H         2.510469        -2.168247         0.061003
