19
Iteration:  1539charge 0 multiplicity 1
 C        -0.025621        -0.066026        -0.031830
 C         1.423507        -0.073354        -0.025836
 O         2.079644         0.185801        -1.256759
 C         3.283346        -0.268995        -0.441483
 C         3.583403         0.984583         0.491034
 C         2.123610         0.781810         1.236607
 O         1.358181         1.703929         2.002430
 C         2.427975        -0.565261         1.819846
 C         2.453357        -1.183068         0.426937
 H        -0.449738         0.073622         0.975072
 H        -0.405361         0.862344        -0.509540
 H        -0.532065        -0.910101        -0.341700
 H         4.182247        -0.476313        -1.115971
 H         4.309713         0.611375         1.185749
 H         3.633780         2.050964         0.201326
 H         0.527356         1.905484         1.474105
 H         3.431129        -0.604404         2.216321
 H         1.774599        -1.036324         2.566334
 H         2.294853        -2.251063         0.188365
