19
Iteration:  2480
 C        -0.189407        -0.448570        -0.021875
 C         1.352907        -0.052106        -0.007587
 O         2.014396         0.153166        -1.322075
 C         3.231043        -0.171264        -0.486690
 C         3.465830         0.979481         0.474325
 C         2.178062         0.875210         1.211506
 O         1.707382         2.004342         2.022924
 C         2.456008        -0.533435         1.847648
 C         2.428719        -1.210181         0.485979
 H        -0.290867        -1.222325         0.796643
 H        -1.062758         0.138265         0.173338
 H        -0.393582        -0.957845        -1.008113
 H         4.000114        -0.779476        -1.050747
 H         4.316940         0.630759         1.143783
 H         3.630096         1.908004        -0.136581
 H         0.817797         1.784322         2.236851
 H         3.386988        -0.526430         2.458402
 H         1.689171        -0.746817         2.611864
 H         2.293209        -2.221095        -0.007920
