19
Iteration:  4872
 C        -0.154336        -0.263711         0.025914
 C         1.373027        -0.174325         0.174648
 O         1.988401         0.018847        -1.259142
 C         3.261357        -0.187423        -0.578130
 C         3.332249         1.046514         0.271100
 C         2.058266         0.764279         1.230906
 O         1.569324         1.910596         1.926710
 C         2.612828        -0.530200         1.948148
 C         2.600161        -1.055629         0.540674
 H        -0.636933        -0.348111         1.036180
 H        -0.652217         0.445827        -0.597245
 H        -0.417089        -1.157676        -0.540265
 H         4.344140        -0.492655        -0.941019
 H         4.386551         0.996078         0.677707
 H         3.338995         2.004301        -0.204720
 H         0.727067         1.989296         1.509232
 H         3.549206        -0.517164         2.647023
 H         1.794055        -1.125158         2.505994
 H         2.646180        -2.078191         0.342711
