19
Iteration:  2938
 C        -0.121692        -0.380165         0.008155
 C         1.336428        -0.081059         0.056709
 O         1.976574         0.140377        -1.271178
 C         3.187842        -0.231999        -0.425882
 C         3.477978         1.026258         0.387050
 C         2.172920         0.760201         1.188612
 O         1.484624         1.853345         1.838512
 C         2.589211        -0.487270         1.947194
 C         2.482703        -1.152162         0.540813
 H        -0.663827        -0.422102         1.045096
 H        -0.442070         0.476043        -0.561383
 H        -0.302410        -1.254210        -0.599025
 H         3.979218        -0.631702        -1.037049
 H         4.516661         1.126134         0.853394
 H         3.405869         1.948644        -0.236113
 H         2.027679         2.584016         2.078711
 H         3.582467        -0.336955         2.431387
 H         1.772188        -0.931314         2.636549
 H         2.237846        -2.126149         0.349892
