19
Iteration:  4796
 C        -0.055099        -0.375757         0.176024
 C         1.431893        -0.158518         0.012361
 O         1.991640         0.082366        -1.217887
 C         3.243066        -0.169733        -0.547144
 C         3.441655         1.046091         0.381539
 C         2.213761         0.828496         1.207667
 O         1.388570         1.854064         1.767368
 C         2.500668        -0.449606         1.904214
 C         2.468485        -1.184866         0.514387
 H        -0.570872        -0.923338         1.047361
 H        -0.566316         0.641531         0.167730
 H        -0.443742        -0.894144        -0.762408
 H         4.070065        -0.429394        -1.362714
 H         4.438987         1.052801         0.987857
 H         3.581991         2.059366        -0.029213
 H         2.009686         2.270834         2.465318
 H         3.494528        -0.570437         2.502251
 H         1.545500        -0.625562         2.542046
 H         2.420854        -2.220573         0.325350
