19
Iteration:  1632
 C        -0.074738        -0.373985        -0.088233
 C         1.369144         0.011460         0.029540
 O         2.058541         0.278203        -1.232825
 C         3.300091        -0.201587        -0.487322
 C         3.546546         0.970086         0.522414
 C         2.179510         0.800725         1.151423
 O         1.504027         1.765771         1.954189
 C         2.322161        -0.538386         1.906375
 C         2.425639        -1.175690         0.429740
 H        -0.556556        -0.923404         0.716846
 H        -0.648661         0.509988        -0.032743
 H        -0.323476        -1.001559        -0.992202
 H         4.114952        -0.577947        -1.048726
 H         4.271810         0.644785         1.295987
 H         3.758735         1.864377         0.002017
 H         2.137420         2.355648         2.343444
 H         3.063574        -0.710834         2.751590
 H         1.329939        -0.846750         2.233092
 H         2.036448        -2.142137         0.091722
