19
Iteration:  3548charge 0 multiplicity 1
 C        -0.091918        -0.170328         0.155703
 C         1.452238        -0.220022         0.007085
 O         2.065519         0.032598        -1.255699
 C         3.317530        -0.160122        -0.562056
 C         3.353589         1.139576         0.258525
 C         2.183042         0.815853         1.285582
 O         1.492251         1.801647         1.811683
 C         2.405508        -0.541772         1.991381
 C         2.505071        -1.167728         0.512336
 H        -0.403982        -0.367126         1.133205
 H        -0.437358         0.800596        -0.051562
 H        -0.551251        -0.756205        -0.697573
 H         3.895136        -0.607825        -1.286142
 H         4.296094         1.176052         0.822656
 H         3.106946         1.933384        -0.365423
 H         1.066661         1.670916         2.637597
 H         3.374469        -0.593003         2.493738
 H         1.640871        -0.899026         2.658701
 H         2.597038        -2.273481         0.441044
