19
Iteration:    63charge 0 multiplicity 1
 C         0.050616        -0.126157        -0.024113
 C         1.489388         0.005091         0.055794
 O         2.062392         0.158124        -1.254710
 C         3.330861        -0.296667        -0.365393
 C         3.504234         1.011495         0.407053
 C         2.187096         0.759245         1.155089
 O         1.517709         1.797388         1.864877
 C         2.189375        -0.623788         1.936765
 C         2.367933        -1.167272         0.493313
 H        -0.525775        -0.375051         0.843505
 H        -0.387566         0.704612        -0.583564
 H        -0.007726        -0.891322        -0.793073
 H         4.133512        -0.658462        -0.992742
 H         4.440773         1.399327         0.952470
 H         3.425791         1.901446        -0.268458
 H         0.797316         1.420434         2.371461
 H         2.993548        -0.818156         2.704604
 H         1.196401        -0.808160         2.383168
 H         2.230109        -2.124391         0.190178
