19
Iteration:  3111charge 0 multiplicity 1
 C        -0.036752        -0.301550         0.058869
 C         1.432035        -0.171185         0.045340
 O         2.024937         0.051744        -1.193617
 C         3.198018        -0.209929        -0.447513
 C         3.435079         1.104080         0.235673
 C         2.177827         0.831142         1.149819
 O         1.495386         1.787190         1.914060
 C         2.436220        -0.485742         1.937261
 C         2.445946        -1.131486         0.526279
 H        -0.453497        -0.701660         1.092442
 H        -0.562955         0.641273        -0.004842
 H        -0.407494        -0.946886        -0.713372
 H         4.109785        -0.511753        -0.991020
 H         4.330133         1.454148         0.750179
 H         3.287212         1.789829        -0.603352
 H         2.061135         2.582678         2.150549
 H         3.358927        -0.498770         2.450699
 H         1.537916        -0.922830         2.485836
 H         2.355057        -2.159703         0.260543
