19
Iteration:  2007
 C        -0.035082        -0.194021        -0.073289
 C         1.385154        -0.040299         0.012461
 O         2.073793         0.322527        -1.178329
 C         3.274861        -0.196216        -0.421746
 C         3.462116         0.999990         0.422292
 C         2.188352         0.631224         1.253408
 O         1.462814         1.800043         1.850782
 C         2.425565        -0.628645         1.890842
 C         2.396985        -1.205673         0.442448
 H        -0.430067        -0.665644         0.787600
 H        -0.703077         0.706595        -0.153472
 H        -0.202375        -0.840993        -0.904018
 H         4.089381        -0.704673        -0.949290
 H         4.420945         1.138025         0.903832
 H         3.378193         1.895363        -0.224219
 H         1.701727         2.023829         2.780361
 H         3.255970        -0.845155         2.577382
 H         1.517363        -1.051116         2.409673
 H         2.215549        -2.227116         0.165021
