19
Iteration:  1208charge 0 multiplicity 1
 C        -0.123681        -0.045632         0.051078
 C         1.448466        -0.077976         0.010420
 O         2.130466         0.176397        -1.257203
 C         3.322029        -0.191046        -0.389387
 C         3.475834         1.097810         0.515069
 C         2.154472         0.701158         1.207444
 O         1.480681         1.843294         1.770190
 C         2.425265        -0.824559         1.912455
 C         2.370553        -1.190406         0.441473
 H        -0.320556        -0.191095         1.150550
 H        -0.557894         0.908723        -0.427368
 H        -0.537946        -0.943184        -0.559591
 H         4.199619        -0.657811        -0.831456
 H         4.492139         1.090043         0.957437
 H         3.353918         2.105164         0.097853
 H         0.524045         1.743860         1.729750
 H         3.404215        -0.867722         2.575699
 H         1.562726        -1.150574         2.533879
 H         2.238190        -2.202463         0.050429
