19
Iteration:  1026charge 0 multiplicity 1
 C        -0.155691        -0.137444        -0.050869
 C         1.408380        -0.057048         0.016619
 O         2.158275         0.109673        -1.267231
 C         3.288726        -0.212066        -0.420416
 C         3.451925         0.972213         0.477138
 C         2.148698         0.770229         1.211863
 O         1.579758         1.867035         1.911021
 C         2.386204        -0.646365         1.898072
 C         2.424887        -1.149324         0.452908
 H        -0.553980        -0.403676         0.931048
 H        -0.654462         0.854787        -0.171397
 H        -0.609076        -0.779348        -0.782274
 H         4.176970        -0.613384        -1.072735
 H         4.304254         1.111640         1.171960
 H         3.335868         1.851064        -0.185199
 H         0.655450         1.653707         2.075148
 H         3.295754        -0.754150         2.432552
 H         1.575257        -1.039209         2.538050
 H         2.245986        -2.208402         0.208872
