19
Iteration:   212
 C        -0.066315        -0.002075        -0.089368
 C         1.425350        -0.166613         0.009414
 O         2.086286         0.232331        -1.094644
 C         3.285171        -0.189550        -0.377952
 C         3.479689         1.063882         0.416199
 C         2.176741         0.698682         1.164621
 O         1.489526         1.825303         1.809072
 C         2.353893        -0.700074         1.894849
 C         2.481082        -1.272638         0.500095
 H        -0.575693        -0.199313         0.875740
 H        -0.244726         1.051742        -0.402913
 H        -0.639444        -0.756906        -0.667494
 H         4.013250        -0.525915        -1.154558
 H         4.413931         1.009769         0.931985
 H         3.310573         1.943763        -0.169160
 H         0.794375         1.470044         2.351426
 H         3.204613        -0.853260         2.498526
 H         1.341269        -1.006811         2.210885
 H         2.554379        -2.450811         0.354151
