19
Iteration:  1128
 C        -0.219117        -0.305968        -0.246278
 C         1.369168        -0.048095        -0.070277
 O         2.161678         0.116550        -1.282268
 C         3.293436        -0.212218        -0.377426
 C         3.401755         1.026433         0.477494
 C         2.073518         0.792510         1.267723
 O         1.737144         1.971779         2.027805
 C         2.354728        -0.663828         1.921594
 C         2.349912        -1.149869         0.461254
 H        -0.684609        -0.798945         0.692260
 H        -0.710723         0.693648        -0.459985
 H        -0.359336        -1.036113        -1.093151
 H         4.220371        -0.463975        -0.873511
 H         4.214378         1.062370         1.210564
 H         3.286551         1.815063        -0.284769
 H         2.034475         1.937630         2.958242
 H         3.361125        -0.801417         2.394142
 H         1.514337        -1.087136         2.582229
 H         2.272240        -2.213626         0.207043
