19
Iteration:  3122
 C        -0.135269        -0.371267         0.053256
 C         1.327434        -0.002294         0.076357
 O         2.055300        -0.005196        -1.217282
 C         3.334570        -0.251868        -0.512968
 C         3.434851         1.080924         0.271097
 C         2.126803         0.855412         1.119088
 O         1.510408         1.785584         1.990804
 C         2.492037        -0.451163         1.869374
 C         2.455262        -1.098892         0.568063
 H        -0.553260        -0.843414         1.050103
 H        -0.706087         0.489691        -0.261916
 H        -0.214849        -1.098989        -0.735448
 H         4.044952        -0.518550        -1.323600
 H         4.366104         1.076927         0.860798
 H         3.359104         1.879590        -0.470322
 H         2.133408         2.490971         2.196719
 H         3.287260        -0.479786         2.561527
 H         1.593677        -0.724860         2.523195
 H         2.213285        -2.111685         0.366443
