19
Iteration:  1077
 C        -0.025726         0.018835        -0.006363
 C         1.484464        -0.066134         0.084238
 O         2.053378         0.168725        -1.157229
 C         3.316652        -0.253511        -0.523258
 C         3.578306         1.015276         0.414534
 C         2.212023         0.690200         1.257042
 O         1.341984         1.822427         1.724507
 C         2.379785        -0.687709         1.969589
 C         2.436535        -1.166156         0.411546
 H        -0.568047        -0.122036         0.965380
 H        -0.584930         0.981486        -0.154989
 H        -0.376556        -0.861893        -0.661348
 H         4.053381        -0.840465        -1.057366
 H         4.447713         0.962584         1.091060
 H         3.398186         2.038143         0.086108
 H         0.972741         1.577242         2.559802
 H         2.972860        -0.947283         2.937217
 H         1.472469        -1.255923         2.183570
 H         2.312582        -2.214470         0.148806
