19
Iteration:  4253charge 0 multiplicity 1
 C        -0.083752        -0.355621         0.032238
 C         1.398428        -0.146047         0.068200
 O         1.924657         0.051201        -1.222431
 C         3.317952        -0.203766        -0.447334
 C         3.421830         1.096956         0.341671
 C         2.155217         0.843455         1.161758
 O         1.506404         1.788042         1.911974
 C         2.603919        -0.455472         1.943908
 C         2.424111        -1.125966         0.541813
 H        -0.640228        -0.175622         0.971491
 H        -0.402734         0.672218        -0.417824
 H        -0.318547        -1.180433        -0.538300
 H         4.030359        -0.695987        -1.152200
 H         4.414787         1.231932         0.735123
 H         3.295593         1.987333        -0.231436
 H         1.062699         2.126492         1.145399
 H         3.585520        -0.551965         2.514651
 H         1.735155        -0.797314         2.550304
 H         2.491040        -2.112214         0.164058
