19
Iteration:  2657charge 0 multiplicity 1
 C        -0.114242        -0.446739        -0.069802
 C         1.325734        -0.126181         0.068276
 O         2.061405         0.145330        -1.179186
 C         3.218852        -0.254062        -0.457187
 C         3.399058         1.084555         0.319333
 C         2.186134         0.809056         1.157391
 O         1.707243         1.936878         1.904075
 C         2.503654        -0.518952         1.957803
 C         2.334062        -1.125049         0.519705
 H        -0.472559        -1.295299         0.558645
 H        -0.721444         0.389968         0.012147
 H        -0.161858        -0.782306        -1.080845
 H         3.947082        -0.554036        -1.205523
 H         4.226179         1.381970         0.955295
 H         3.342898         1.937489        -0.346066
 H         1.345847         1.713521         2.749420
 H         3.366196        -0.644232         2.569647
 H         1.611620        -0.660563         2.492075
 H         1.992230        -2.087181         0.223935
