19
Iteration:  1056
 C        -0.086832         0.057374         0.127201
 C         1.436795        -0.165876         0.020778
 O         2.128438         0.206874        -1.238526
 C         3.331961        -0.158028        -0.399580
 C         3.403804         0.924072         0.539274
 C         2.123038         0.695646         1.150058
 O         1.445625         1.812904         1.664721
 C         2.406152        -0.677218         1.866891
 C         2.458339        -1.228071         0.454105
 H        -0.404739         0.060270         1.178890
 H        -0.135379         1.164954        -0.094873
 H        -0.610000        -0.732543        -0.468018
 H         4.196201        -0.478587        -1.056325
 H         4.196161         0.869766         1.319078
 H         3.344307         1.899245         0.021178
 H         0.770344         1.439372         2.317110
 H         3.399904        -0.822538         2.427960
 H         1.703807        -1.007746         2.635269
 H         2.482707        -2.303030         0.253324
