19
Iteration:  3589
 C        -0.131338        -0.199881         0.077942
 C         1.359564        -0.134695         0.045609
 O         2.032334         0.078182        -1.187705
 C         3.302305        -0.237865        -0.502922
 C         3.418057         1.051359         0.314369
 C         2.124549         0.699319         1.223202
 O         1.449039         1.917627         1.833135
 C         2.661982        -0.530769         1.924517
 C         2.449997        -1.185549         0.517512
 H        -0.533820        -0.397891         1.171895
 H        -0.518549         0.825996        -0.145075
 H        -0.484870        -0.930279        -0.658509
 H         4.151171        -0.420547        -1.175791
 H         4.328913         1.214144         0.923817
 H         3.451255         1.976567        -0.299910
 H         0.495092         1.658801         1.840192
 H         3.662689        -0.318661         2.262300
 H         2.019545        -1.052801         2.716465
 H         2.510270        -2.252762         0.306904
