19
Iteration:  2717charge 0 multiplicity 1
 C        -0.104953        -0.021692         0.160824
 C         1.354683        -0.146815        -0.013982
 O         2.016197         0.043061        -1.190407
 C         3.278495        -0.145973        -0.465822
 C         3.395833         1.089306         0.387990
 C         2.093210         0.667805         1.188146
 O         1.497766         1.819873         1.687302
 C         2.574500        -0.632864         1.928617
 C         2.564436        -1.161090         0.506973
 H        -0.404092        -0.385259         1.140592
 H        -0.421521         1.052653        -0.074556
 H        -0.576207        -0.799900        -0.537806
 H         4.080365        -0.538643        -1.125959
 H         4.137873         1.015533         1.192723
 H         3.158588         2.036462        -0.120055
 H         0.785616         1.667520         2.285665
 H         3.566617        -0.552964         2.480183
 H         1.788502        -1.049806         2.683770
 H         2.793160        -2.259276         0.273027
