19
Iteration:  2055charge 0 multiplicity 1
 C        -0.086489         0.012096        -0.029572
 C         1.377308        -0.181649        -0.044304
 O         2.115339         0.103458        -1.371697
 C         3.303843        -0.285328        -0.462185
 C         3.385409         1.048479         0.528342
 C         2.102655         0.749772         1.218107
 O         1.446555         1.791893         1.970256
 C         2.479291        -0.575047         1.920437
 C         2.488604        -1.193917         0.456788
 H        -0.698632        -0.550682         0.682321
 H        -0.292095         0.955662         0.319006
 H        -0.564328        -0.106673        -1.048898
 H         4.150892        -0.629975        -1.063030
 H         4.231782         1.269925         1.162609
 H         3.312412         1.859518        -0.157320
 H         1.229551         1.509565         2.873187
 H         3.458128        -0.344723         2.374671
 H         1.936237        -1.167020         2.648681
 H         2.642257        -2.238824         0.045391
