19
Iteration:   218
 C        -0.102940        -0.030015        -0.130066
 C         1.399726        -0.154979         0.070691
 O         2.050160         0.218530        -1.105325
 C         3.317664        -0.163241        -0.445645
 C         3.542463         1.052562         0.451045
 C         2.181738         0.723477         1.180475
 O         1.481483         1.800622         1.827845
 C         2.374923        -0.638554         1.947920
 C         2.478804        -1.312635         0.459836
 H        -0.703936        -0.106070         0.784496
 H        -0.213401         1.002856        -0.448506
 H        -0.523444        -0.702799        -0.887302
 H         3.867891        -0.694182        -1.223261
 H         4.467788         0.976193         1.081627
 H         3.434626         1.952133        -0.216752
 H         0.640163         1.508700         2.208368
 H         3.316318        -0.823539         2.575747
 H         1.432641        -0.994340         2.397902
 H         2.478548        -2.362022         0.232445
