19
Iteration:  4061charge 0 multiplicity 1
 C        -0.089886        -0.315448         0.092962
 C         1.460135        -0.130095         0.089945
 O         2.021983         0.137287        -1.257755
 C         3.272037        -0.237507        -0.495452
 C         3.498103         1.071123         0.344415
 C         2.205941         0.815909         1.245665
 O         1.397046         1.864281         1.879818
 C         2.518536        -0.509432         1.953732
 C         2.474043        -1.209644         0.518385
 H        -0.527403        -0.222756         1.065577
 H        -0.502361         0.465207        -0.503685
 H        -0.363089        -1.296342        -0.442889
 H         3.983722        -0.684121        -1.236519
 H         4.455836         1.137868         0.835909
 H         3.270388         1.930910        -0.351378
 H         0.732227         2.120883         1.198205
 H         3.455343        -0.670102         2.394995
 H         1.601941        -0.627754         2.436565
 H         2.132089        -2.216548         0.135862
