19
Iteration:  4154
 C        -0.095841        -0.364719         0.040601
 C         1.373387        -0.143280         0.032431
 O         2.002010         0.133074        -1.213306
 C         3.242685        -0.211060        -0.485842
 C         3.462095         1.027484         0.354001
 C         2.104932         0.809938         1.145697
 O         1.430165         1.879075         1.807876
 C         2.560095        -0.486692         1.924331
 C         2.510731        -1.147300         0.593467
 H        -0.370369        -0.855288         1.014128
 H        -0.707918         0.597569        -0.070045
 H        -0.307744        -0.925297        -0.803643
 H         3.974526        -0.659573        -1.148650
 H         4.270814         0.905423         1.094201
 H         3.491745         1.948473        -0.132571
 H         2.097144         2.063113         2.482190
 H         3.578392        -0.353277         2.268282
 H         1.692555        -0.742883         2.487677
 H         2.465588        -2.202610         0.504914
