19
Iteration:  3278charge 0 multiplicity 1
 C        -0.258957        -0.256228        -0.015757
 C         1.349391        -0.153217         0.111662
 O         1.979121        -0.002694        -1.152046
 C         3.262552        -0.170737        -0.505935
 C         3.386522         1.103045         0.390850
 C         2.128977         0.744456         1.170886
 O         1.508291         1.881846         1.828970
 C         2.576258        -0.562821         1.992608
 C         2.631453        -1.130223         0.474414
 H        -0.599552        -0.608727         0.907855
 H        -0.468864         0.801815        -0.186576
 H        -0.425062        -0.938413        -0.896824
 H         4.046175        -0.426535        -1.199427
 H         4.314309         1.072637         0.998315
 H         3.483005         2.067110        -0.118594
 H         2.026459         2.646468         1.433639
 H         3.480425        -0.563534         2.670355
 H         1.756340        -1.043075         2.494984
 H         2.670479        -2.192252         0.118208
