19
Iteration:  3488
 C        -0.108664        -0.422604        -0.009852
 C         1.344660        -0.089957         0.030162
 O         1.933590         0.217378        -1.227950
 C         3.247085        -0.207621        -0.493576
 C         3.465802         0.983484         0.343252
 C         2.171310         0.853233         1.253055
 O         1.516653         1.882681         1.822440
 C         2.516644        -0.547040         2.017424
 C         2.535869        -1.189545         0.526304
 H        -0.531097        -0.799748         0.994764
 H        -0.691673         0.459994        -0.479993
 H        -0.257029        -1.338475        -0.611873
 H         3.987113        -0.559568        -1.286745
 H         4.433383         0.919969         0.907607
 H         3.665548         1.920582        -0.281701
 H         2.050190         2.658485         2.112632
 H         3.234133        -0.571234         2.868921
 H         1.498520        -0.826978         2.407240
 H         2.334594        -2.238514         0.327117
