19
Iteration:  4001
 C        -0.090437        -0.364251        -0.001194
 C         1.361308        -0.194893        -0.023405
 O         2.014382        -0.015306        -1.235706
 C         3.243161        -0.178590        -0.471198
 C         3.391237         1.105337         0.342910
 C         2.120857         0.837332         1.212292
 O         1.531754         1.907409         1.950718
 C         2.496513        -0.521035         1.918972
 C         2.537207        -1.089271         0.556377
 H        -0.469015        -0.770169         1.026457
 H        -0.632967         0.688910        -0.183731
 H        -0.452033        -1.081422        -0.714876
 H         4.097337        -0.500098        -1.073325
 H         4.390453         1.043582         0.895100
 H         3.414345         1.993047        -0.269073
 H         1.862926         2.777210         1.548897
 H         3.285290        -0.854721         2.626011
 H         1.619276        -0.834176         2.572557
 H         2.430794        -2.094796         0.189956
