19
Iteration:  2567charge 0 multiplicity 1
 C        -0.146839        -0.084270         0.209871
 C         1.427292        -0.091755         0.038144
 O         2.110343         0.076983        -1.261343
 C         3.260451        -0.193435        -0.498960
 C         3.455746         1.008198         0.449754
 C         2.160200         0.744680         1.183565
 O         1.412519         1.768532         1.806454
 C         2.567949        -0.524879         1.820033
 C         2.413935        -1.169195         0.488154
 H        -0.405020         0.259426         1.225866
 H        -0.559464         0.668962        -0.449414
 H        -0.501237        -1.080929        -0.127436
 H         4.080886        -0.493993        -1.205038
 H         4.457423         1.090900         0.962811
 H         3.454472         1.906717        -0.236504
 H         0.632154         1.351025         2.152444
 H         3.528719        -0.494862         2.278950
 H         1.962012        -0.974620         2.592347
 H         2.325852        -2.254403         0.264247
