19
Iteration:  4458charge 0 multiplicity 1
 C        -0.116851        -0.395316         0.088524
 C         1.393552        -0.200390         0.080482
 O         1.962494         0.132067        -1.291482
 C         3.205349        -0.168863        -0.496071
 C         3.482970         1.063869         0.320471
 C         2.088497         0.800127         1.198425
 O         1.509964         1.858999         1.891630
 C         2.544311        -0.461926         2.043697
 C         2.574999        -1.150469         0.508136
 H        -0.599647        -0.281555         1.121317
 H        -0.468606         0.320895        -0.609062
 H        -0.336346        -1.295095        -0.414556
 H         3.934459        -0.605644        -1.203576
 H         4.332648         1.092907         1.150848
 H         3.379852         1.994808        -0.180111
 H         1.290534         2.483738         1.169424
 H         3.637179        -0.480641         2.201979
 H         1.766950        -1.049211         2.573505
 H         2.432576        -2.101574         0.142094
