19
Iteration:  3554
 C        -0.060135        -0.128471         0.146918
 C         1.430818        -0.186669        -0.026114
 O         2.001656        -0.040662        -1.240084
 C         3.313296        -0.106745        -0.526882
 C         3.392188         1.168539         0.286325
 C         2.190901         0.734271         1.239521
 O         1.498284         1.790079         1.807512
 C         2.441176        -0.514694         1.975362
 C         2.502584        -1.163348         0.542697
 H        -0.499549        -0.507649         1.171750
 H        -0.373352         0.936227        -0.153568
 H        -0.674639        -0.699512        -0.545562
 H         4.053988        -0.479706        -1.351976
 H         4.288940         1.083944         0.938147
 H         3.209196         2.054839        -0.423976
 H         0.920791         1.405142         2.499087
 H         3.328472        -0.477912         2.655023
 H         1.566161        -0.938144         2.592770
 H         2.660560        -2.226530         0.350716
