19
Iteration:   152charge 0 multiplicity 1
 C        -0.094179        -0.270649        -0.106898
 C         1.393904        -0.090098        -0.034581
 O         2.081441         0.278577        -1.217968
 C         3.308903        -0.306081        -0.377307
 C         3.595678         0.955102         0.470474
 C         2.164378         0.775791         1.198907
 O         1.510208         1.855952         1.899518
 C         2.311242        -0.533107         1.879999
 C         2.389177        -1.144557         0.469227
 H        -0.481973        -0.551522         0.859446
 H        -0.536172         0.700820        -0.322414
 H        -0.359624        -0.956571        -0.905046
 H         4.086232        -0.682267        -1.033216
 H         4.450945         0.872458         1.195420
 H         3.667429         1.885441        -0.161933
 H         1.175082         1.361973         2.670256
 H         3.080922        -0.701701         2.694517
 H         1.371283        -0.775864         2.353666
 H         2.259528        -2.152255         0.214723
