19
Iteration:  4864
 C        -0.119126        -0.293812         0.048121
 C         1.388249        -0.201600         0.097927
 O         1.950397         0.026955        -1.210928
 C         3.254555        -0.177958        -0.506463
 C         3.329708         1.067322         0.270688
 C         2.145641         0.767233         1.148351
 O         1.564851         1.932820         1.907136
 C         2.567301        -0.546211         1.980721
 C         2.605709        -1.085759         0.525401
 H        -0.681917        -0.330982         0.955872
 H        -0.476004         0.738332        -0.340071
 H        -0.354022        -1.274164        -0.521734
 H         4.090917        -0.365292        -1.169335
 H         4.280273         0.936404         0.860235
 H         3.412469         2.119698        -0.225858
 H         0.606510         1.933539         1.755316
 H         3.473621        -0.513969         2.627370
 H         1.674991        -1.054302         2.345545
 H         2.672986        -2.116613         0.271754
