19
Iteration:  3606
 C        -0.085264        -0.335691         0.022534
 C         1.393628        -0.128956         0.077755
 O         1.980279         0.201868        -1.203600
 C         3.189643        -0.200002        -0.498558
 C         3.408230         1.077934         0.367853
 C         2.213162         0.826743         1.211055
 O         1.567371         1.840553         1.756246
 C         2.601486        -0.570261         1.996791
 C         2.436247        -1.162754         0.586605
 H        -0.608605        -0.672000         0.908439
 H        -0.616637         0.591420        -0.272687
 H        -0.418107        -1.212997        -0.548859
 H         3.903054        -0.772202        -1.164773
 H         4.394831         1.295572         0.810824
 H         3.394827         1.975825        -0.372991
 H         0.585220         1.678479         1.716786
 H         3.628689        -0.804838         2.376876
 H         1.846315        -0.839237         2.715919
 H         2.253528        -2.214699         0.293603
