19
Iteration:  1093charge 0 multiplicity 1
 C        -0.058549        -0.140400        -0.070538
 C         1.401125        -0.052203         0.055862
 O         2.090297         0.190933        -1.212295
 C         3.279255        -0.236538        -0.446615
 C         3.537213         0.960822         0.451907
 C         2.185828         0.784787         1.211066
 O         1.450412         1.806675         1.844313
 C         2.350419        -0.636712         1.892136
 C         2.410670        -1.174250         0.515465
 H        -0.707472        -0.389640         0.800884
 H        -0.427070         0.856951        -0.389500
 H        -0.345991        -0.744152        -0.903857
 H         4.137663        -0.463082        -1.176530
 H         4.475600         0.916671         1.022688
 H         3.702693         1.782376        -0.274585
 H         1.344485         1.604412         2.795093
 H         3.188738        -0.810227         2.503582
 H         1.403847        -0.776591         2.469907
 H         2.310532        -2.222100         0.199619
