19
Iteration:  3389
 C        -0.167614        -0.172879         0.033206
 C         1.360630        -0.133760         0.134141
 O         2.067283         0.099315        -1.215697
 C         3.237921        -0.218304        -0.464879
 C         3.445482         1.105159         0.310086
 C         2.208321         0.775298         1.196468
 O         1.431133         1.748197         1.830880
 C         2.586177        -0.562377         2.019251
 C         2.506537        -1.143800         0.508767
 H        -0.587544        -0.383794         0.995221
 H        -0.534779         0.818948        -0.381905
 H        -0.653587        -1.004157        -0.582439
 H         4.032416        -0.506372        -1.117402
 H         4.442451         1.273445         0.755642
 H         3.153207         1.840909        -0.474760
 H         1.270299         2.335868         1.105512
 H         3.583780        -0.535164         2.556142
 H         1.949636        -1.222929         2.563958
 H         2.246573        -2.193497         0.372185
