19
Iteration:  1350
 C        -0.066775        -0.255246        -0.021114
 C         1.406081        -0.072939         0.026585
 O         2.126512         0.280351        -1.212991
 C         3.299949        -0.243505        -0.502916
 C         3.428782         0.965423         0.492469
 C         2.177395         0.732309         1.245902
 O         1.472464         1.870134         1.846918
 C         2.380351        -0.590285         1.957968
 C         2.361909        -1.211791         0.340558
 H        -0.358060        -0.347433         1.046148
 H        -0.491791         0.562777        -0.697104
 H        -0.247379        -1.232513        -0.570842
 H         4.142798        -0.552466        -1.061914
 H         4.348442         1.030980         1.142303
 H         3.436905         1.846436        -0.136532
 H         1.491054         1.895657         2.795082
 H         3.369705        -0.704332         2.509720
 H         1.643186        -0.747818         2.739380
 H         2.232582        -2.260059         0.082848
