19
Iteration:  2373charge 0 multiplicity 1
 C        -0.105997        -0.031598        -0.027350
 C         1.408215        -0.115636         0.041709
 O         2.100512         0.024645        -1.203966
 C         3.272111        -0.148849        -0.384674
 C         3.389150         1.126077         0.275174
 C         2.157064         0.745953         1.230261
 O         1.545686         1.742327         1.966823
 C         2.458912        -0.611676         1.938428
 C         2.436885        -1.207942         0.431958
 H        -0.690104         0.146920         0.928064
 H        -0.268745         0.819885        -0.622188
 H        -0.694622        -0.854309        -0.488609
 H         4.145109        -0.426657        -1.079158
 H         4.372546         1.405241         0.535703
 H         3.230641         1.885307        -0.503943
 H         1.246640         1.145768         2.645436
 H         3.386751        -0.555638         2.526018
 H         1.490981        -0.956571         2.293258
 H         2.257307        -2.183168        -0.027552
