19
Iteration:  4432
 C        -0.143265        -0.314899         0.119845
 C         1.389591        -0.087326         0.072275
 O         2.036991         0.019801        -1.192995
 C         3.241692        -0.197867        -0.478410
 C         3.371491         1.077312         0.324366
 C         2.182157         0.847440         1.132026
 O         1.425735         1.769369         1.884473
 C         2.597040        -0.444300         1.861745
 C         2.547722        -1.143135         0.541401
 H        -0.534320        -0.509476         1.153974
 H        -0.653568         0.474917        -0.486433
 H        -0.343302        -1.237722        -0.534108
 H         4.024238        -0.376144        -1.182122
 H         4.249204         1.058460         1.005523
 H         3.184957         2.019594        -0.295158
 H         1.850224         2.651434         1.754831
 H         3.544679        -0.627500         2.392004
 H         1.710173        -0.829286         2.398870
 H         2.329775        -2.322202         0.325481
