19
Iteration:  4262
 C        -0.104496        -0.345150         0.019941
 C         1.385175        -0.139033         0.127344
 O         1.951326         0.083610        -1.257598
 C         3.282664        -0.232149        -0.495462
 C         3.425521         1.123957         0.284819
 C         2.238864         0.793520         1.221047
 O         1.486784         1.797529         1.899065
 C         2.563130        -0.465896         1.940862
 C         2.454731        -1.148412         0.545775
 H        -0.643248        -0.362847         1.050522
 H        -0.396198         0.544905        -0.663975
 H        -0.403802        -1.249417        -0.498148
 H         4.091487        -0.507860        -1.162892
 H         4.272066         1.434900         0.971631
 H         3.221917         1.896320        -0.416584
 H         1.215211         2.542235         1.384005
 H         3.446423        -0.609225         2.679391
 H         1.745084        -0.884782         2.603780
 H         2.498884        -2.170014         0.531980
