19
Iteration:   724charge 0 multiplicity 1
 C        -0.095982         0.061266         0.086088
 C         1.369485        -0.071062         0.003326
 O         2.238345         0.166232        -1.227121
 C         3.351720        -0.293624        -0.321393
 C         3.488457         1.089948         0.391034
 C         2.149802         0.751209         1.149351
 O         1.400980         1.674682         1.923738
 C         2.407947        -0.619629         1.861108
 C         2.365028        -1.252176         0.372200
 H        -0.427148        -0.029969         1.184696
 H        -0.399150         1.025243        -0.377426
 H        -0.589307        -0.540594        -0.663403
 H         4.168432        -0.586647        -0.792059
 H         4.324508         1.278289         1.028516
 H         3.613793         1.639688        -0.521230
 H         0.489884         1.574862         1.714272
 H         3.354120        -0.852802         2.399181
 H         1.565581        -0.815896         2.623534
 H         2.245160        -2.361945         0.230940
