19
Iteration:  4880
 C        -0.161685        -0.295049         0.020341
 C         1.341191        -0.124186         0.136222
 O         2.007222         0.000433        -1.280321
 C         3.255029        -0.166492        -0.556491
 C         3.388700         1.081347         0.313516
 C         2.106474         0.787418         1.294309
 O         1.551954         1.860644         1.916461
 C         2.622455        -0.493794         1.936611
 C         2.569990        -1.124233         0.520178
 H        -0.619330        -0.294890         1.056561
 H        -0.517393         0.492775        -0.647082
 H        -0.414909        -1.211179        -0.455653
 H         3.987858        -0.652163        -1.279304
 H         4.229889         1.182187         1.009669
 H         3.088994         1.886408        -0.333811
 H         0.819951         2.251658         1.487759
 H         3.592130        -0.379824         2.427497
 H         1.949915        -0.984621         2.645996
 H         2.479845        -2.269156         0.410048
