19
Iteration:  3516charge 0 multiplicity 1
 C        -0.121560        -0.332962         0.063204
 C         1.339390        -0.082053         0.053015
 O         1.983536         0.068469        -1.189008
 C         3.315483        -0.212567        -0.438000
 C         3.425686         1.069574         0.414569
 C         2.089869         0.854204         1.153104
 O         1.538112         1.859885         1.781415
 C         2.518685        -0.543325         1.870430
 C         2.458302        -1.127906         0.472839
 H        -0.394486        -0.727512         0.993044
 H        -0.730849         0.497193        -0.160293
 H        -0.206157        -1.191385        -0.664606
 H         4.040273        -0.580410        -1.099320
 H         4.232012         1.048873         1.141270
 H         3.663168         1.973649        -0.072445
 H         1.886121         2.030784         2.704644
 H         3.578660        -0.512562         2.217784
 H         1.895043        -0.908346         2.645761
 H         2.376369        -2.199836         0.209966
