19
Iteration:  1352charge 0 multiplicity 1
 C        -0.067709        -0.249531        -0.016468
 C         1.421425        -0.070684         0.034651
 O         2.138941         0.294703        -1.218196
 C         3.285589        -0.252120        -0.498649
 C         3.436597         0.966877         0.493256
 C         2.166014         0.738608         1.243404
 O         1.464635         1.853067         1.834151
 C         2.387701        -0.585549         1.972015
 C         2.354837        -1.221344         0.331600
 H        -0.337789        -0.290109         1.068211
 H        -0.508265         0.636084        -0.637763
 H        -0.217891        -1.223098        -0.515312
 H         4.179962        -0.595253        -1.120405
 H         4.311353         1.125238         1.113621
 H         3.403520         1.811987        -0.188528
 H         1.463819         1.866108         2.782349
 H         3.399359        -0.705542         2.526392
 H         1.604725        -0.824845         2.733887
 H         2.234230        -2.293573         0.129347
