19
Iteration:  3603
 C        -0.099605        -0.294722         0.005919
 C         1.395926        -0.149378         0.069032
 O         1.982010         0.191677        -1.199415
 C         3.225355        -0.188388        -0.501841
 C         3.434134         1.062546         0.348511
 C         2.188940         0.821540         1.211381
 O         1.538777         1.850801         1.768191
 C         2.623958        -0.574413         2.011240
 C         2.428466        -1.169244         0.573687
 H        -0.448611        -0.671581         0.980214
 H        -0.635975         0.583991        -0.235223
 H        -0.523540        -1.215547        -0.535712
 H         3.900933        -0.684177        -1.107783
 H         4.417369         1.223352         0.770878
 H         3.226667         1.900999        -0.329611
 H         0.561190         1.715852         1.740543
 H         3.656943        -0.751912         2.364512
 H         1.939841        -0.844748         2.782860
 H         2.217546        -2.242857         0.325816
