19
Iteration:  4663
 C        -0.223856        -0.377808         0.096717
 C         1.336752        -0.210107         0.186910
 O         2.086724         0.089381        -1.240171
 C         3.248213        -0.113343        -0.519528
 C         3.464753         1.124405         0.411991
 C         2.099176         0.752726         1.180018
 O         1.501121         1.875368         1.772603
 C         2.510407        -0.594824         1.897599
 C         2.539176        -1.096036         0.480998
 H        -0.631166        -0.250835         1.175037
 H        -0.556387         0.444185        -0.503637
 H        -0.673408        -1.209585        -0.380020
 H         4.130381        -0.403376        -1.069532
 H         4.191919         1.030083         1.252733
 H         3.376139         2.037407        -0.122486
 H         1.989566         2.723792         1.520409
 H         3.534726        -0.602712         2.299005
 H         1.890943        -1.054887         2.693675
 H         2.647165        -2.193645         0.268312
