19
Iteration:  1183charge 0 multiplicity 1
 C        -0.124956        -0.218993        -0.119237
 C         1.397025        -0.068003         0.001536
 O         2.141419         0.217176        -1.167179
 C         3.254977        -0.278108        -0.458029
 C         3.449807         0.923945         0.525879
 C         2.073351         0.748065         1.187514
 O         1.570392         1.872068         1.896888
 C         2.450804        -0.557684         1.863625
 C         2.390373        -1.119546         0.425056
 H        -0.481673        -0.358273         0.951266
 H        -0.506102         0.711350        -0.631415
 H        -0.410018        -1.072820        -0.801637
 H         4.024159        -0.768427        -1.005018
 H         4.251814         0.816273         1.323816
 H         3.628352         1.946780         0.094387
 H         1.013929         1.641611         2.623728
 H         3.443763        -0.622258         2.377738
 H         1.649426        -0.912628         2.570954
 H         2.310372        -2.177943         0.172700
