19
Iteration:   519charge 0 multiplicity 1
 C        -0.066162        -0.003356        -0.048543
 C         1.433181        -0.090204        -0.020040
 O         2.168356         0.145194        -1.236063
 C         3.285278        -0.217582        -0.456950
 C         3.476268         1.006596         0.497679
 C         2.109796         0.713456         1.228704
 O         1.426360         1.701823         1.913567
 C         2.390542        -0.617709         1.851014
 C         2.373360        -1.158251         0.425682
 H        -0.458126        -0.291337         0.890778
 H        -0.254183         0.966785        -0.319294
 H        -0.424041        -0.639079        -0.811468
 H         4.091850        -0.696900        -0.968225
 H         4.294966         0.896645         1.189760
 H         3.427412         1.989270         0.054276
 H         1.879243         2.111206         2.658149
 H         3.179678        -0.507923         2.532911
 H         1.543961        -0.962443         2.396114
 H         2.180691        -2.239825         0.272060
