19
Iteration:  3553charge 0 multiplicity 1
 C        -0.063613        -0.133839         0.152313
 C         1.437148        -0.189251        -0.027593
 O         2.009750        -0.033037        -1.240153
 C         3.316296        -0.110065        -0.531242
 C         3.387855         1.167450         0.280807
 C         2.191524         0.744755         1.251738
 O         1.499245         1.789760         1.805389
 C         2.430499        -0.517732         1.979019
 C         2.501648        -1.164854         0.537616
 H        -0.492215        -0.494472         1.159505
 H        -0.385406         0.920888        -0.157605
 H        -0.670970        -0.699835        -0.573232
 H         4.020077        -0.505817        -1.364732
 H         4.272718         1.072070         0.928396
 H         3.186967         2.041304        -0.438698
 H         0.920010         1.431594         2.544125
 H         3.348840        -0.486058         2.643505
 H         1.590958        -0.931184         2.601053
 H         2.658717        -2.237284         0.367305
