19
Iteration:  1587
 C        -0.021842        -0.047005        -0.151719
 C         1.398897        -0.177668         0.001021
 O         2.100642         0.169452        -1.201911
 C         3.315778        -0.249797        -0.440716
 C         3.333370         1.087813         0.503854
 C         2.076449         0.696180         1.284649
 O         1.551209         1.800147         2.014099
 C         2.488865        -0.683625         1.854389
 C         2.413381        -1.182938         0.452472
 H        -0.694967        -0.346134         0.605114
 H        -0.271571         0.962358        -0.299496
 H        -0.325675        -0.715205        -0.987903
 H         4.140181        -0.526788        -1.087542
 H         4.162394         1.471574         1.064371
 H         2.993742         1.691681        -0.289259
 H         1.143479         2.412157         1.389705
 H         3.395172        -0.800847         2.494912
 H         1.622296        -0.983507         2.479133
 H         2.358066        -2.220760         0.073488
