19
Iteration:  4246charge 0 multiplicity 1
 C        -0.074227        -0.282009         0.055028
 C         1.387374        -0.166007         0.047921
 O         1.956090         0.030141        -1.189367
 C         3.259975        -0.185036        -0.444626
 C         3.433956         1.099240         0.349989
 C         2.139345         0.804118         1.156214
 O         1.507056         1.806354         1.893520
 C         2.594034        -0.486322         1.931367
 C         2.490717        -1.099315         0.537455
 H        -0.510392        -0.369341         1.027812
 H        -0.559244         0.477210        -0.506039
 H        -0.379845        -1.170579        -0.594828
 H         4.077124        -0.645506        -1.042939
 H         4.403637         0.971804         0.866237
 H         3.335350         2.017172        -0.335008
 H         0.787256         2.152327         1.314790
 H         3.586965        -0.379517         2.244865
 H         1.758288        -0.688081         2.570983
 H         2.323021        -2.188368         0.069634
