19
Iteration:  3432
 C        -0.160513        -0.224167         0.095186
 C         1.309074        -0.129214        -0.030102
 O         2.071617         0.008026        -1.272443
 C         3.294647        -0.229331        -0.487915
 C         3.511782         1.053313         0.367043
 C         2.054338         0.797689         1.231159
 O         1.507305         1.813512         1.967776
 C         2.528990        -0.487125         1.854486
 C         2.534936        -1.092691         0.533669
 H        -0.485766        -0.306363         1.123287
 H        -0.657374         0.676912        -0.393510
 H        -0.612131        -1.025577        -0.630478
 H         4.045771        -0.693792        -1.120999
 H         4.402826         0.983050         0.999078
 H         3.376432         1.909458        -0.330893
 H         0.888254         2.365822         1.522981
 H         3.418501        -0.360982         2.544388
 H         1.817937        -0.995953         2.456051
 H         2.671742        -2.183367         0.417605
