19
Iteration:  2582
 C        -0.064289        -0.206179         0.160564
 C         1.387160        -0.068896         0.088069
 O         2.074519         0.223162        -1.234974
 C         3.327135        -0.318746        -0.510483
 C         3.443799         1.041119         0.286559
 C         2.149745         0.814584         1.137631
 O         1.454095         1.808008         1.847654
 C         2.527999        -0.606133         1.979578
 C         2.417450        -1.161642         0.432314
 H        -0.378394        -0.035093         1.218381
 H        -0.498394         0.577919        -0.459783
 H        -0.504257        -1.157733        -0.002035
 H         4.154680        -0.827051        -1.029121
 H         4.213781         1.091788         1.076154
 H         3.453949         1.974762        -0.296954
 H         0.493338         1.553088         2.046693
 H         3.512609        -0.721089         2.520722
 H         1.620495        -0.914779         2.512742
 H         2.217737        -2.184100         0.185104
