19
Iteration:  2896
 C        -0.019682        -0.098356         0.362694
 C         1.450571        -0.187025         0.072218
 O         2.033274         0.101256        -1.254715
 C         3.280965        -0.207697        -0.459521
 C         3.450457         1.118124         0.380570
 C         2.164921         0.756633         1.196251
 O         1.342319         1.773906         1.594128
 C         2.392141        -0.577123         1.908162
 C         2.578684        -1.210760         0.424365
 H        -0.388829        -0.336250         1.445853
 H        -0.458186         0.891011         0.216116
 H        -0.576465        -0.773912        -0.277650
 H         4.063372        -0.580567        -1.141349
 H         4.417895         1.357092         0.929294
 H         3.305627         1.894221        -0.391929
 H         1.674343         1.958389         2.486880
 H         3.240709        -0.541694         2.670914
 H         1.449412        -1.026299         2.363979
 H         2.687063        -2.195781         0.107454
