19
Iteration:  4726
 C        -0.178303        -0.285549         0.003462
 C         1.347640        -0.083352         0.085830
 O         1.996943         0.001518        -1.256901
 C         3.319105        -0.189897        -0.489015
 C         3.419732         1.075096         0.372060
 C         2.187180         0.829834         1.136318
 O         1.522701         1.721964         1.931290
 C         2.522471        -0.471165         1.949426
 C         2.538243        -1.058263         0.532236
 H        -0.450527        -0.328993         1.058936
 H        -0.727591         0.557139        -0.393581
 H        -0.431245        -1.257594        -0.433437
 H         4.030790        -0.538008        -1.142956
 H         4.305295         1.189482         0.900158
 H         3.408664         1.928654        -0.270121
 H         0.882052         2.245306         1.354454
 H         3.535026        -0.475149         2.397975
 H         1.705214        -0.719636         2.711350
 H         2.562651        -2.203532         0.417942
