19
Iteration:    44charge 0 multiplicity 1
 C        -0.104094        -0.083647        -0.050604
 C         1.378336        -0.133985         0.039309
 O         2.195470         0.159408        -1.144532
 C         3.308285        -0.224683        -0.462368
 C         3.498121         1.010596         0.457260
 C         2.210188         0.745703         1.285591
 O         1.432530         1.914308         1.720325
 C         2.327241        -0.715084         1.915595
 C         2.426501        -1.194762         0.475243
 H        -0.412228        -0.150806         0.979057
 H        -0.367902         0.900813        -0.399263
 H        -0.566851        -0.850777        -0.650601
 H         4.104575        -0.552940        -1.123137
 H         4.397370         0.955761         1.063754
 H         3.591943         1.920023        -0.147075
 H         1.103963         1.771876         2.595120
 H         2.991990        -0.995300         2.710852
 H         1.362391        -1.042123         2.148473
 H         2.223628        -2.202083         0.157930
