19
Iteration:  2544
 C        -0.148448        -0.057990         0.027415
 C         1.388912        -0.217011         0.083564
 O         1.939235         0.044918        -1.252879
 C         3.295693        -0.178619        -0.461745
 C         3.399243         1.106642         0.390658
 C         2.148973         0.684402         1.175688
 O         1.498565         1.857854         1.806552
 C         2.573015        -0.640731         1.907166
 C         2.569084        -1.128879         0.514639
 H        -0.355441         0.155711         1.066435
 H        -0.356899         0.983405        -0.412781
 H        -0.681146        -0.886497        -0.536388
 H         4.118359        -0.478038        -1.141045
 H         4.279574         1.131331         1.136293
 H         3.456550         2.131628        -0.043093
 H         1.098780         1.409870         2.595282
 H         3.428356        -0.693541         2.543944
 H         1.791770        -1.027918         2.580339
 H         2.500652        -2.208415         0.167043
