19
Iteration:  3462
 C        -0.051136        -0.361392         0.080933
 C         1.352060        -0.164715         0.073363
 O         2.056588         0.117368        -1.185374
 C         3.255420        -0.144164        -0.492516
 C         3.402580         1.088966         0.403683
 C         2.096620         0.787079         1.220166
 O         1.598349         1.861322         1.837736
 C         2.481871        -0.552938         1.888090
 C         2.398409        -1.175674         0.480251
 H        -0.565346        -0.586541         0.956265
 H        -0.359379         0.525832        -0.447596
 H        -0.342588        -1.229253        -0.604630
 H         3.996918        -0.490738        -1.182711
 H         4.342657         1.203058         0.985732
 H         3.206583         1.933271        -0.245365
 H         1.820052         2.702563         1.351163
 H         3.330084        -0.542952         2.625605
 H         1.645390        -0.862264         2.486966
 H         2.222847        -2.260287         0.266426
