19
Iteration:  2705charge 0 multiplicity 1
 C        -0.121437        -0.093664         0.139859
 C         1.409845        -0.247308         0.128783
 O         2.042531         0.013452        -1.299790
 C         3.316191        -0.162226        -0.501412
 C         3.376866         1.064202         0.406915
 C         2.072585         0.745203         1.138150
 O         1.486389         1.872666         1.803120
 C         2.517067        -0.536480         1.890405
 C         2.513138        -1.192087         0.504660
 H        -0.596317        -0.399103         1.025285
 H        -0.300598         1.046215         0.115110
 H        -0.624045        -0.471454        -0.794679
 H         4.183662        -0.343126        -1.181396
 H         4.306863         1.011776         0.998611
 H         3.588982         2.058199        -0.021231
 H         0.929422         1.562956         2.591062
 H         3.549248        -0.360213         2.316295
 H         1.862417        -1.116889         2.621961
 H         2.629188        -2.323581         0.250279
