19
Iteration:  1536
 C        -0.005457        -0.063274        -0.013331
 C         1.424471        -0.044391        -0.023874
 O         2.097762         0.193209        -1.249586
 C         3.284994        -0.258949        -0.434923
 C         3.545496         0.982110         0.470997
 C         2.091202         0.770135         1.222003
 O         1.365773         1.720426         1.986629
 C         2.430428        -0.613477         1.825765
 C         2.464105        -1.188973         0.447373
 H        -0.419564         0.037815         1.057192
 H        -0.509073         0.805791        -0.568777
 H        -0.560628        -1.024920        -0.385893
 H         4.122127        -0.420338        -1.057585
 H         4.409919         0.580736         1.191421
 H         3.704136         2.049921         0.139396
 H         0.595585         1.984244         1.524043
 H         3.469794        -0.655840         2.240347
 H         1.713006        -1.016150         2.530527
 H         2.242265        -2.179271         0.083125
