19
Iteration:  2114charge 0 multiplicity 1
 C        -0.111186        -0.306098        -0.032938
 C         1.393862        -0.052963         0.040237
 O         2.084726         0.282874        -1.179340
 C         3.256646        -0.124009        -0.564607
 C         3.480540         0.884022         0.506266
 C         2.057822         0.716184         1.238699
 O         1.594245         1.899174         1.908878
 C         2.426031        -0.603137         1.886946
 C         2.414758        -1.174750         0.428762
 H        -0.278957        -0.582672         1.056943
 H        -0.689887         0.584854        -0.495656
 H        -0.207811        -1.193406        -0.668473
 H         4.145975        -0.409483        -1.147009
 H         4.254501         0.408446         1.191069
 H         3.831238         1.897426         0.112516
 H         0.603438         2.066038         1.773795
 H         3.354886        -0.559160         2.472149
 H         1.662442        -1.204362         2.386793
 H         2.446666        -2.199617         0.079308
