19
Iteration:  4406
 C        -0.061726        -0.291670         0.146502
 C         1.424584        -0.209139        -0.025441
 O         2.006894         0.052437        -1.217226
 C         3.302779        -0.160303        -0.479323
 C         3.361507         1.128514         0.226625
 C         2.162398         0.766450         1.176346
 O         1.392688         1.827630         1.839191
 C         2.546167        -0.523682         1.972995
 C         2.480016        -1.132926         0.568770
 H        -0.297506        -0.637807         1.130016
 H        -0.282405         0.796119        -0.164376
 H        -0.659232        -0.852859        -0.604706
 H         4.119906        -0.483139        -1.241171
 H         4.252739         1.221054         0.782926
 H         2.931900         1.971447        -0.349920
 H         2.169612         2.332367         2.203030
 H         3.528785        -0.478244         2.609180
 H         1.719305        -0.901659         2.649843
 H         2.532120        -2.201723         0.463817
