19
Iteration:  1544charge 0 multiplicity 1
 C        -0.074240        -0.045045        -0.046591
 C         1.425787        -0.120027        -0.020414
 O         2.061782         0.170447        -1.264786
 C         3.309355        -0.246152        -0.487964
 C         3.593947         0.981628         0.530856
 C         2.178024         0.789462         1.238987
 O         1.347443         1.676826         2.017209
 C         2.441941        -0.512205         1.834580
 C         2.410803        -1.168901         0.400818
 H        -0.468121         0.109789         0.967966
 H        -0.228460         0.924675        -0.535700
 H        -0.610177        -0.980902        -0.505160
 H         4.101184        -0.635478        -1.104766
 H         4.367221         0.750385         1.329757
 H         3.629248         1.989058         0.139515
 H         0.580803         1.763192         1.483633
 H         3.442969        -0.541250         2.347500
 H         1.791041        -1.027595         2.552249
 H         2.423635        -2.275428         0.355843
