19
Iteration:   879charge 0 multiplicity 1
 C        -0.075367         0.068412         0.024729
 C         1.382299        -0.097709         0.098428
 O         2.078864         0.094592        -1.214676
 C         3.359472        -0.246646        -0.410415
 C         3.358301         1.055676         0.532861
 C         2.109604         0.669085         1.338159
 O         1.424768         1.849182         1.754123
 C         2.577421        -0.745624         1.837788
 C         2.462013        -1.191336         0.413573
 H        -0.715559        -0.079548         0.973875
 H        -0.388773         1.067538        -0.352275
 H        -0.369341        -0.581800        -0.864782
 H         4.197025        -0.572925        -0.963169
 H         4.206938         1.155144         1.204415
 H         3.201351         1.921078        -0.142089
 H         0.573197         2.019670         1.230161
 H         3.690143        -0.789150         2.178128
 H         1.976333        -1.393326         2.493768
 H         2.492579        -2.213241         0.067536
