19
Iteration:   763charge 0 multiplicity 1
 C        -0.081091        -0.148026        -0.120507
 C         1.436998        -0.129886         0.046079
 O         2.004652         0.178267        -1.254775
 C         3.206945        -0.145914        -0.469196
 C         3.539046         0.913817         0.532842
 C         2.135132         0.753443         1.282854
 O         1.502795         1.820933         1.925543
 C         2.385642        -0.642312         1.957632
 C         2.455492        -1.179388         0.462163
 H        -0.763067        -0.249192         0.700488
 H        -0.228413         0.856338        -0.577417
 H        -0.209181        -0.881571        -0.966821
 H         4.065861        -0.257839        -1.318155
 H         4.497476         0.708930         1.106810
 H         3.596208         1.888089        -0.018499
 H         1.737389         2.647530         1.386633
 H         3.288765        -0.687479         2.560392
 H         1.521703        -1.083162         2.466403
 H         2.435515        -2.214027         0.108268
