19
Iteration:  1052
 C        -0.083850         0.053477         0.124897
 C         1.423059        -0.208206        -0.011944
 O         2.130673         0.209701        -1.233671
 C         3.352360        -0.160633        -0.386348
 C         3.393098         0.933514         0.547802
 C         2.115838         0.687080         1.112043
 O         1.469865         1.833795         1.692806
 C         2.431997        -0.649857         1.853873
 C         2.424581        -1.237091         0.447014
 H        -0.482215         0.048047         1.189005
 H        -0.324406         1.122478        -0.073345
 H        -0.699129        -0.679006        -0.452645
 H         4.195432        -0.536774        -0.850295
 H         4.093645         0.875059         1.361605
 H         3.363153         1.955736         0.173387
 H         0.812839         1.422890         2.233695
 H         3.430058        -0.808937         2.363084
 H         1.754139        -1.027400         2.637318
 H         2.572254        -2.306507         0.279618
