19
Iteration:   736
 C        -0.164255         0.041521         0.020093
 C         1.420040        -0.063679        -0.010740
 O         2.232415         0.167607        -1.205941
 C         3.346132        -0.284490        -0.416845
 C         3.507279         1.002164         0.465138
 C         2.111447         0.735990         1.146239
 O         1.430962         1.661180         1.915958
 C         2.467430        -0.611171         1.820061
 C         2.339115        -1.164731         0.512313
 H        -0.640069        -0.090109         1.046937
 H        -0.444302         1.043707        -0.285470
 H        -0.609788        -0.767157        -0.520411
 H         4.095018        -0.682904        -1.007991
 H         4.328193         1.132059         1.130611
 H         3.332293         1.908168        -0.121399
 H         0.581314         1.935793         1.453084
 H         3.483214        -0.588383         2.256386
 H         1.693492        -1.013388         2.506904
 H         2.255198        -2.231987         0.220699
