19
Iteration:  1648
 C         0.003786        -0.354058        -0.021605
 C         1.435981        -0.054874         0.005939
 O         2.131820         0.360531        -1.195179
 C         3.230432        -0.211588        -0.467034
 C         3.510259         0.932570         0.447106
 C         2.144651         0.764714         1.301481
 O         1.463628         1.895863         1.850953
 C         2.309172        -0.686178         1.866919
 C         2.308974        -1.158694         0.429242
 H        -0.109444        -0.947256         0.910466
 H        -0.726056         0.519449        -0.215743
 H        -0.043319        -1.007856        -0.869648
 H         4.020547        -0.568170        -1.208606
 H         4.438079         0.803722         1.055336
 H         3.607981         1.952503        -0.113181
 H         2.011455         2.198607         2.624126
 H         3.231059        -0.886060         2.397604
 H         1.391616        -0.933829         2.441231
 H         2.331043        -2.223870         0.211472
