19
Iteration:  1249charge 0 multiplicity 1
 C        -0.044066        -0.059664         0.011207
 C         1.418637        -0.162574        -0.045679
 O         2.070918         0.193071        -1.251518
 C         3.288009        -0.201177        -0.482599
 C         3.543512         1.026895         0.488463
 C         2.100137         0.743458         1.163902
 O         1.396365         1.722272         1.937389
 C         2.407840        -0.585365         1.934703
 C         2.479973        -1.218969         0.494012
 H        -0.365422        -0.397967         1.039572
 H        -0.261334         1.005214        -0.207480
 H        -0.659890        -0.612209        -0.775210
 H         3.923578        -0.741308        -1.128898
 H         4.213305         0.708430         1.316649
 H         3.650002         2.001374        -0.037162
 H         1.155612         2.458481         1.284917
 H         3.341412        -0.652792         2.532121
 H         1.570012        -0.907115         2.578624
 H         2.631715        -2.243703         0.128801
