19
Iteration:  1144
 C        -0.043982        -0.311874        -0.290264
 C         1.295915        -0.165911         0.007252
 O         2.079986         0.122133        -1.210211
 C         3.242945        -0.213235        -0.426753
 C         3.424363         1.088868         0.464454
 C         2.244604         0.810591         1.336330
 O         1.714465         1.940217         1.993162
 C         2.283001        -0.616444         1.871622
 C         2.339976        -1.131549         0.467253
 H        -0.615953        -0.636919         0.548226
 H        -0.622008         0.580401        -0.495390
 H        -0.159159        -1.012846        -1.127691
 H         4.034360        -0.702054        -1.040530
 H         4.456706         1.086772         0.838339
 H         3.323453         2.084693         0.027537
 H         1.965404         1.753598         2.952373
 H         2.966113        -0.835308         2.743631
 H         1.291045        -0.893973         2.243148
 H         2.218230        -2.160463         0.099445
