19
Iteration:  1107charge 0 multiplicity 1
 C        -0.140612        -0.192046        -0.157969
 C         1.370840        -0.089382        -0.045199
 O         2.149858         0.192683        -1.230244
 C         3.270450        -0.254128        -0.402650
 C         3.454661         0.979658         0.508586
 C         2.072983         0.746536         1.178537
 O         1.607844         1.823208         1.919965
 C         2.423372        -0.495360         1.916174
 C         2.332614        -1.170160         0.451273
 H        -0.385826        -0.640558         0.860829
 H        -0.493698         0.833601        -0.390013
 H        -0.398949        -0.955024        -0.946527
 H         4.068934        -0.715049        -0.912633
 H         4.178419         0.831273         1.298525
 H         3.500170         1.950309         0.001937
 H         1.780838         1.611198         2.873957
 H         3.405437        -0.398499         2.482124
 H         1.642353        -1.049126         2.456337
 H         2.173772        -2.237388         0.319701
