19
Iteration:   279
 C        -0.153625        -0.288786        -0.087128
 C         1.362818        -0.057622        -0.038068
 O         2.161417         0.223928        -1.201511
 C         3.332103        -0.184040        -0.409577
 C         3.437616         1.016309         0.425440
 C         2.097211         0.779355         1.256156
 O         1.749276         1.815690         1.983544
 C         2.241062        -0.600124         1.844837
 C         2.435682        -1.180632         0.472405
 H        -0.603465        -0.744171         0.813631
 H        -0.555857         0.757710        -0.251213
 H        -0.443524        -0.960332        -0.949229
 H         4.221285        -0.627690        -0.817462
 H         4.321687         1.149816         1.051866
 H         3.330339         1.903348        -0.180041
 H         0.774910         1.825649         1.863227
 H         2.892433        -0.902177         2.662701
 H         1.163804        -0.818450         2.085025
 H         2.316033        -2.245123         0.117931
