19
Iteration:  3573
 C        -0.122590        -0.110882         0.137624
 C         1.416828        -0.197158         0.159307
 O         2.022413        -0.018503        -1.264270
 C         3.239622        -0.221053        -0.471927
 C         3.376933         1.096196         0.419658
 C         2.086458         0.873280         1.092444
 O         1.484853         1.804895         1.825540
 C         2.596563        -0.524536         1.846579
 C         2.611636        -1.144830         0.486354
 H        -0.542103        -0.383884         1.080617
 H        -0.445588         0.910450        -0.164008
 H        -0.511671        -0.746119        -0.676438
 H         4.066757        -0.686413        -1.050668
 H         4.202960         1.007683         1.135803
 H         3.214479         1.962499        -0.263577
 H         0.616249         1.585406         2.121323
 H         3.539420        -0.598014         2.468763
 H         1.800713        -0.882713         2.453557
 H         2.487167        -2.225398         0.340943
