19
Iteration:  2128charge 0 multiplicity 1
 C        -0.081657        -0.400189        -0.003008
 C         1.330538        -0.035639        -0.036106
 O         2.014971         0.327977        -1.250025
 C         3.272394        -0.184322        -0.409176
 C         3.541734         0.936120         0.607563
 C         2.116393         0.768033         1.185367
 O         1.668119         1.900115         1.897542
 C         2.351841        -0.690802         1.878718
 C         2.460522        -1.129784         0.366884
 H        -0.566240        -0.353072         0.959100
 H        -0.871133         0.341515        -0.590987
 H        -0.342480        -1.366901        -0.465652
 H         3.914972        -0.501896        -1.215003
 H         4.354799         0.779581         1.339615
 H         3.598651         1.938637         0.129480
 H         0.746724         1.998639         1.729556
 H         3.351424        -0.666264         2.354757
 H         1.655855        -1.017994         2.716762
 H         2.341151        -2.171429         0.070517
