19
Iteration:  1401
 C        -0.086148         0.011478         0.036922
 C         1.408822        -0.190737        -0.033937
 O         2.059595         0.051027        -1.290105
 C         3.265832        -0.154802        -0.551285
 C         3.496744         1.047938         0.600465
 C         2.103245         0.693204         1.197109
 O         1.363128         1.807822         1.828986
 C         2.474281        -0.642775         1.886407
 C         2.556314        -1.158363         0.473677
 H        -0.438931        -0.149265         1.041941
 H         0.004502         1.077727         0.000495
 H        -0.504466        -0.574872        -0.805965
 H         4.098878        -0.420702        -1.227145
 H         4.391446         0.819986         1.255494
 H         3.481775         2.111766         0.285587
 H         1.469884         1.787161         2.807294
 H         3.226857        -0.457155         2.618605
 H         1.604723        -1.232802         2.309952
 H         2.273145        -2.201452         0.238543
