19
Iteration:   156
 C        -0.095475        -0.255152        -0.087700
 C         1.421414        -0.089206        -0.060446
 O         2.094834         0.239616        -1.237964
 C         3.289085        -0.297128        -0.347577
 C         3.581397         0.951433         0.487150
 C         2.164917         0.800037         1.203863
 O         1.493372         1.860391         1.906575
 C         2.336428        -0.541576         1.865403
 C         2.384895        -1.100244         0.447107
 H        -0.443064        -0.572454         0.916104
 H        -0.601619         0.686339        -0.297557
 H        -0.501112        -0.973120        -0.812034
 H         4.043819        -0.701581        -1.046506
 H         4.352152         0.839707         1.212603
 H         3.823916         1.832107        -0.087776
 H         1.183918         1.367072         2.701244
 H         3.073093        -0.840943         2.552365
 H         1.361467        -0.794387         2.281979
 H         2.314155        -2.268552         0.255291
