19
Iteration:  1919
 C        -0.148949        -0.050125        -0.166429
 C         1.415905        -0.062685         0.019598
 O         2.089087         0.164264        -1.245557
 C         3.250344        -0.231171        -0.426919
 C         3.472492         1.055076         0.488360
 C         2.187503         0.748976         1.185201
 O         1.493093         1.650651         2.056756
 C         2.507506        -0.655951         1.883685
 C         2.421861        -1.084433         0.480955
 H        -0.580788         0.024752         0.815897
 H        -0.481374         0.775315        -0.860346
 H        -0.400203        -0.978699        -0.593945
 H         3.961782        -0.725758        -1.107226
 H         4.191477         1.155973         1.312226
 H         3.523369         1.986771        -0.130109
 H         0.721317         1.966673         1.500879
 H         3.441421        -0.954568         2.444282
 H         1.672770        -1.094810         2.507222
 H         2.366623        -2.053280         0.040042
