19
Iteration:  4674charge 0 multiplicity 1
 C        -0.139738        -0.327594         0.095410
 C         1.343444        -0.132071         0.085561
 O         2.068419         0.072157        -1.261617
 C         3.276491        -0.151572        -0.473914
 C         3.340784         1.126116         0.449617
 C         2.094023         0.751086         1.208672
 O         1.520210         1.818252         1.817183
 C         2.589053        -0.533793         1.925891
 C         2.500770        -1.138845         0.456817
 H        -0.654391        -0.197726         1.134734
 H        -0.611378         0.408214        -0.510366
 H        -0.331485        -1.340038        -0.218749
 H         4.004076        -0.507816        -1.186431
 H         4.367635         1.055251         0.932244
 H         3.341821         2.003723        -0.144109
 H         1.855399         2.566368         1.266089
 H         3.511672        -0.381579         2.529491
 H         1.679218        -0.945786         2.464822
 H         2.364946        -2.250840         0.339501
