19
Iteration:   226charge 0 multiplicity 1
 C        -0.127490        -0.053387        -0.149533
 C         1.380988        -0.141291         0.112530
 O         2.032873         0.201786        -1.159932
 C         3.305051        -0.210576        -0.527520
 C         3.560041         1.001093         0.483978
 C         2.149220         0.720546         1.253372
 O         1.496614         1.778987         1.839667
 C         2.446912        -0.605501         1.952991
 C         2.443832        -1.223616         0.464402
 H        -0.821714        -0.146155         0.725839
 H        -0.247989         1.004199        -0.577847
 H        -0.320427        -0.686300        -1.069756
 H         4.109971        -0.552714        -1.197153
 H         4.384546         1.032075         1.245487
 H         3.668593         1.947509        -0.078496
 H         0.574435         1.456655         1.989028
 H         3.305575        -0.667589         2.724539
 H         1.583900        -0.951107         2.625345
 H         2.397557        -2.197402         0.130027
