19
Iteration:   335
 C        -0.198296        -0.123041        -0.120375
 C         1.401453        -0.003062        -0.010615
 O         2.147066         0.321234        -1.143082
 C         3.314818        -0.293275        -0.408078
 C         3.588393         0.991150         0.516735
 C         2.102226         0.729061         1.166186
 O         1.461146         1.815049         1.778896
 C         2.478567        -0.702706         1.918113
 C         2.340611        -1.198374         0.501814
 H        -0.655723        -0.477999         0.848931
 H        -0.878671         0.723750        -0.522710
 H        -0.454245        -0.908300        -0.910669
 H         4.101072        -0.760512        -0.953027
 H         4.359282         1.123553         1.297628
 H         3.443884         1.863234        -0.136051
 H         1.509609         1.561353         2.685857
 H         3.465698        -0.812546         2.442075
 H         1.732978        -1.239964         2.553359
 H         2.319392        -2.259012         0.223858
