19
Iteration:  2288
 C        -0.042621        -0.382427         0.051177
 C         1.453531        -0.010584         0.016139
 O         2.047516         0.332698        -1.227303
 C         3.353893        -0.161174        -0.537656
 C         3.422146         0.928032         0.449228
 C         2.118990         0.741396         1.223979
 O         1.663428         1.926978         1.858405
 C         2.339181        -0.660387         1.936823
 C         2.308208        -1.191811         0.444581
 H        -0.332596        -1.069212         0.951369
 H        -0.634050         0.563136         0.081167
 H        -0.112159        -0.933652        -0.898224
 H         4.134719        -0.557972        -1.234676
 H         4.286519         0.750322         1.187731
 H         3.431631         2.015780         0.014814
 H         0.683313         1.896113         1.930697
 H         3.263174        -1.043260         2.509382
 H         1.487468        -0.950350         2.612410
 H         1.991596        -2.186983         0.205196
