19
Iteration:  4944
 C        -0.005510        -0.348831         0.183079
 C         1.431704        -0.171173         0.083157
 O         1.948087        -0.000973        -1.264158
 C         3.222097        -0.117802        -0.506425
 C         3.374593         1.072772         0.355413
 C         2.159328         0.783606         1.189991
 O         1.425851         1.909289         1.761814
 C         2.516790        -0.530635         1.906442
 C         2.536497        -1.106517         0.490098
 H        -0.317726        -0.382342         1.280573
 H        -0.507480         0.590286        -0.252811
 H        -0.516078        -1.135095        -0.389896
 H         3.985716        -0.338673        -1.257654
 H         4.258833         1.031581         1.080057
 H         3.476917         2.130785        -0.103569
 H         1.972103         2.216180         2.498144
 H         3.425027        -0.525841         2.431410
 H         1.756259        -1.044729         2.453352
 H         2.653100        -2.274774         0.338536
