19
Iteration:    31charge 0 multiplicity 1
 C        -0.164799        -0.048262        -0.016485
 C         1.403660        -0.161569        -0.043136
 O         2.125042         0.195253        -1.261931
 C         3.327003        -0.206224        -0.373107
 C         3.496652         0.927137         0.611660
 C         2.075722         0.697727         1.225517
 O         1.483911         1.893321         1.670461
 C         2.398081        -0.653651         1.945319
 C         2.454108        -1.210047         0.446102
 H        -0.624544        -0.100786         0.948297
 H        -0.399336         0.937236        -0.399851
 H        -0.665619        -0.787004        -0.618359
 H         4.198077        -0.550718        -0.927911
 H         4.324498         0.735764         1.353225
 H         3.461186         1.915502         0.127876
 H         1.394239         1.961746         2.666547
 H         3.388887        -0.626008         2.422051
 H         1.675093        -1.052528         2.556713
 H         2.624009        -2.211231         0.242813
