19
Iteration:  2493
 C        -0.193403        -0.437086        -0.054459
 C         1.272471        -0.108545         0.025365
 O         2.077141         0.105237        -1.236514
 C         3.223104        -0.219140        -0.489959
 C         3.509143         1.036979         0.403005
 C         2.169432         0.825249         1.231266
 O         1.701495         1.925840         1.985635
 C         2.496064        -0.482688         1.901913
 C         2.300750        -1.080069         0.411094
 H        -0.473638        -1.191306         0.801817
 H        -0.751048         0.461046        -0.011976
 H        -0.325801        -0.944666        -1.008081
 H         4.133100        -0.378779        -1.145162
 H         4.395297         0.971344         1.058382
 H         3.678560         2.018322        -0.113113
 H         0.903865         1.607989         2.517095
 H         3.543555        -0.627151         2.296696
 H         1.758058        -0.890853         2.618620
 H         2.357615        -2.150463         0.331685
