19
Iteration:  2591charge 0 multiplicity 1
 C        -0.081887        -0.268393         0.145951
 C         1.452812        -0.067691         0.036725
 O         2.009551         0.236425        -1.222386
 C         3.284075        -0.264464        -0.456176
 C         3.452521         1.044356         0.316853
 C         2.138084         0.811964         1.154484
 O         1.532255         1.841479         1.850327
 C         2.482656        -0.624584         1.961226
 C         2.421518        -1.177634         0.474533
 H        -0.465559        -0.077323         1.183398
 H        -0.528556         0.431725        -0.465212
 H        -0.266250        -1.195042        -0.314147
 H         4.000454        -0.773237        -1.140713
 H         4.405563         1.191202         0.873406
 H         3.511770         1.794497        -0.518365
 H         0.540823         1.700481         1.915745
 H         3.285316        -0.767102         2.672860
 H         1.647707        -1.031603         2.481727
 H         2.412211        -2.174479         0.133581
