19
Iteration:  4851charge 0 multiplicity 1
 C        -0.071837        -0.325149         0.084278
 C         1.401713        -0.224670         0.084217
 O         1.930040         0.045687        -1.195305
 C         3.236279        -0.143187        -0.531517
 C         3.429126         1.143738         0.373640
 C         2.119543         0.811842         1.204577
 O         1.593908         1.898057         1.819070
 C         2.505284        -0.499167         1.881359
 C         2.551556        -1.204952         0.522211
 H        -0.401547        -0.498274         1.135950
 H        -0.468444         0.593191        -0.405383
 H        -0.542455        -1.008084        -0.662262
 H         4.032890        -0.544371        -1.294216
 H         4.366352         1.349746         1.017687
 H         3.272582         1.990299        -0.297733
 H         0.657820         1.649157         2.028584
 H         3.416830        -0.521734         2.609073
 H         1.659559        -0.803711         2.588296
 H         2.572577        -2.227539         0.345291
