19
Iteration:  4392charge 0 multiplicity 1
 C        -0.064610        -0.222261         0.116546
 C         1.394006        -0.239408         0.115776
 O         2.026437         0.006112        -1.256526
 C         3.244186        -0.182091        -0.542674
 C         3.302618         1.141111         0.375991
 C         2.128403         0.815306         1.202848
 O         1.434376         1.843846         1.768844
 C         2.556370        -0.498454         1.905291
 C         2.566942        -1.195806         0.526421
 H        -0.314869        -0.628618         1.150588
 H        -0.567530         0.678542         0.232272
 H        -0.427537        -0.885793        -0.603017
 H         4.124102        -0.428020        -1.108406
 H         4.302260         1.341174         0.881389
 H         3.301496         1.907230        -0.336843
 H         1.855579         2.375675         2.471466
 H         3.558195        -0.566616         2.395964
 H         1.676804        -0.837322         2.455294
 H         2.581157        -2.203137         0.325257
