19
Iteration:  2078charge 0 multiplicity 1
 C        -0.076156        -0.004265        -0.031268
 C         1.366335        -0.089457         0.043367
 O         2.124934         0.125667        -1.166469
 C         3.319396        -0.159930        -0.380142
 C         3.406898         1.128937         0.367324
 C         2.145853         0.700095         1.225424
 O         1.535034         1.730011         1.854080
 C         2.451833        -0.678088         1.863334
 C         2.385864        -1.202930         0.452195
 H        -0.457455        -0.764730         0.707898
 H        -0.667675         0.813733         0.147166
 H        -0.381712        -0.549584        -0.963649
 H         4.144342        -0.455251        -1.042479
 H         4.408386         1.150146         0.813659
 H         3.278068         2.031182        -0.218736
 H         0.729325         1.573867         2.425363
 H         3.293875        -0.750702         2.562937
 H         1.594263        -1.018345         2.421037
 H         2.510947        -2.273222         0.134433
