19
Iteration:  4666charge 0 multiplicity 1
 C        -0.210311        -0.368394         0.104470
 C         1.339684        -0.191707         0.193001
 O         2.102261         0.078976        -1.243344
 C         3.230169        -0.115946        -0.513585
 C         3.454120         1.149537         0.424573
 C         2.087771         0.744304         1.187662
 O         1.514106         1.862928         1.774729
 C         2.517908        -0.596164         1.908326
 C         2.537314        -1.098167         0.456266
 H        -0.604350        -0.261066         1.149044
 H        -0.606540         0.407094        -0.585970
 H        -0.703115        -1.220796        -0.392430
 H         4.159688        -0.461502        -1.150640
 H         4.203156         0.901834         1.267019
 H         3.289494         2.049411        -0.211462
 H         1.939419         2.665390         1.478359
 H         3.525730        -0.541667         2.279347
 H         1.873472        -0.978911         2.631772
 H         2.584272        -2.134931         0.375182
