19
Iteration:  3891
 C        -0.105283        -0.295826         0.239053
 C         1.402344        -0.130076         0.037098
 O         2.094063         0.054732        -1.197029
 C         3.306976        -0.236756        -0.456052
 C         3.395710         1.103653         0.282485
 C         2.160552         0.835182         1.181871
 O         1.432663         1.850870         1.750797
 C         2.539143        -0.515785         1.878801
 C         2.438620        -1.144180         0.468109
 H        -0.242827        -0.372211         1.334351
 H        -0.488909         0.550719        -0.355192
 H        -0.551557        -1.144852        -0.199897
 H         4.190104        -0.477654        -1.031709
 H         4.257467         1.310607         0.980688
 H         3.449607         1.955410        -0.399395
 H         1.040031         1.609383         2.568703
 H         3.307952        -0.572999         2.641472
 H         1.581650        -0.837128         2.327822
 H         2.378957        -2.125361         0.159405
