19
Iteration:  4232charge 0 multiplicity 1
 C        -0.146163        -0.293222         0.068639
 C         1.371016        -0.120050         0.119044
 O         2.067463         0.050539        -1.252486
 C         3.249958        -0.205110        -0.534848
 C         3.407643         1.064051         0.353297
 C         2.097959         0.817202         1.158667
 O         1.511539         1.860607         1.868775
 C         2.581823        -0.479013         1.911871
 C         2.500669        -1.190476         0.533418
 H        -0.493078        -0.324219         1.102691
 H        -0.604686         0.705055        -0.168701
 H        -0.353896        -1.158853        -0.447905
 H         4.085778        -0.424656        -1.262061
 H         4.177417         1.209960         1.067483
 H         3.534768         1.967384        -0.230435
 H         0.561774         1.957791         1.564118
 H         3.491358        -0.481154         2.481796
 H         1.946085        -1.073634         2.590561
 H         2.642741        -2.297739         0.589796
