19
Iteration:  3577
 C        -0.122354        -0.126014         0.142057
 C         1.408056        -0.166622         0.138519
 O         2.041263        -0.000470        -1.246539
 C         3.248613        -0.242961        -0.475567
 C         3.366938         1.091266         0.405850
 C         2.083439         0.844643         1.134847
 O         1.475965         1.835079         1.829043
 C         2.620028        -0.517245         1.833570
 C         2.595387        -1.159273         0.481001
 H        -0.721641        -0.478459         1.103317
 H        -0.428069         0.897401        -0.240597
 H        -0.527717        -0.758826        -0.635231
 H         4.043347        -0.724960        -1.130730
 H         4.148954         0.991674         1.181555
 H         3.338200         1.932910        -0.347806
 H         0.526446         1.619938         2.044751
 H         3.582393        -0.537945         2.364820
 H         1.849006        -0.975894         2.563046
 H         2.522986        -2.224998         0.322442
