19
Iteration:  2287
 C        -0.046181        -0.373215         0.062435
 C         1.448375        -0.015351         0.006328
 O         2.054509         0.324485        -1.224647
 C         3.356864        -0.160222        -0.546550
 C         3.421934         0.934910         0.458443
 C         2.121046         0.748545         1.218592
 O         1.658418         1.926454         1.858333
 C         2.340059        -0.663603         1.935000
 C         2.309185        -1.196238         0.445011
 H        -0.360509        -1.079459         0.946398
 H        -0.627730         0.544358         0.099647
 H        -0.132872        -0.929310        -0.907915
 H         4.142563        -0.588915        -1.252304
 H         4.265801         0.772799         1.171489
 H         3.448257         2.027031         0.085461
 H         0.705161         1.926407         1.951937
 H         3.290564        -1.016586         2.499875
 H         1.469982        -0.970855         2.592175
 H         1.991303        -2.203253         0.191797
