19
Iteration:  1254
 C        -0.091817        -0.084503        -0.022102
 C         1.416462        -0.148222        -0.012175
 O         2.112687         0.171304        -1.261220
 C         3.254372        -0.215767        -0.466596
 C         3.529282         1.010151         0.475070
 C         2.105259         0.739484         1.187791
 O         1.404596         1.710932         1.940882
 C         2.431515        -0.585762         1.924868
 C         2.433055        -1.137603         0.490744
 H        -0.314468        -0.447059         0.974170
 H        -0.368860         0.987862        -0.197296
 H        -0.589566        -0.673632        -0.791615
 H         4.034158        -0.560097        -1.240716
 H         4.209428         0.858231         1.315409
 H         3.804954         1.930247        -0.038835
 H         1.355986         2.457431         1.359519
 H         3.415351        -0.713509         2.467755
 H         1.632525        -0.927903         2.596780
 H         2.607053        -2.186796         0.223387
