19
Iteration:  2258charge 0 multiplicity 1
 C        -0.206564        -0.166894         0.091565
 C         1.360404        -0.090768        -0.060379
 O         2.003774         0.153528        -1.284666
 C         3.374420        -0.126578        -0.362874
 C         3.441370         0.950223         0.516345
 C         2.165660         0.768210         1.213324
 O         1.570453         1.819089         1.823376
 C         2.432404        -0.626026         1.868078
 C         2.537144        -1.148126         0.409512
 H        -0.627759        -0.777540         0.859027
 H        -0.534644         0.925789         0.238990
 H        -0.647334        -0.496144        -0.820804
 H         4.196398        -0.500511        -0.902747
 H         4.344169         0.895943         1.206713
 H         3.656378         1.910410         0.027296
 H         0.824668         1.611650         2.373156
 H         3.292813        -0.903399         2.431401
 H         1.474584        -0.978923         2.209823
 H         2.585091        -2.185796         0.115660
