19
Iteration:   930charge 0 multiplicity 1
 C        -0.076764        -0.225349        -0.069605
 C         1.396096        -0.066887         0.089622
 O         2.107385         0.222954        -1.225404
 C         3.279229        -0.278357        -0.467868
 C         3.500390         1.028159         0.446002
 C         2.153362         0.756879         1.167483
 O         1.597703         1.780707         1.913761
 C         2.308803        -0.583052         1.904103
 C         2.470839        -1.144810         0.470862
 H        -0.458256        -0.154659         0.975757
 H        -0.434081         0.749251        -0.434646
 H        -0.455925        -0.946254        -0.739934
 H         4.059259        -0.616428        -1.123046
 H         4.331512         1.051565         1.134930
 H         3.341418         1.902209        -0.191825
 H         0.676873         1.603710         2.225865
 H         2.903399        -0.697682         2.802138
 H         1.264738        -0.881090         2.238601
 H         2.126694        -2.126576         0.083582
