19
Iteration:  3940
 C        -0.157516        -0.284087         0.127516
 C         1.403560        -0.181374         0.099666
 O         1.975466         0.031802        -1.200670
 C         3.229779        -0.185934        -0.517720
 C         3.503236         1.035346         0.479091
 C         2.122426         0.777258         1.212034
 O         1.392284         1.933223         1.676002
 C         2.582412        -0.501497         1.908005
 C         2.565282        -1.109855         0.478223
 H        -0.575068        -0.768012         1.000102
 H        -0.526778         0.633441        -0.242464
 H        -0.360816        -0.958298        -0.820521
 H         4.058430        -0.457245        -1.218267
 H         4.466042         0.957104         0.974074
 H         3.484365         2.024200        -0.033364
 H         1.683846         2.094931         2.628472
 H         3.635858        -0.566741         2.225961
 H         1.826658        -0.942779         2.549330
 H         2.429348        -2.273272         0.355594
