19
Iteration:  1843charge 0 multiplicity 1
 C        -0.089816        -0.207319        -0.043954
 C         1.429388        -0.086949        -0.047270
 O         2.109697         0.208252        -1.256692
 C         3.285790        -0.181677        -0.497777
 C         3.490936         1.052043         0.558315
 C         2.170683         0.715384         1.247787
 O         1.469761         1.769137         1.980172
 C         2.375129        -0.648952         1.878177
 C         2.362458        -1.136183         0.385031
 H        -0.197185        -0.722513         0.928459
 H        -0.495097         0.850450         0.195266
 H        -0.507117        -0.798543        -0.828264
 H         4.061944        -0.640802        -1.150570
 H         4.371074         0.767182         1.179800
 H         3.547914         2.076126         0.096585
 H         1.694165         2.636743         1.606819
 H         3.223039        -0.914402         2.623323
 H         1.361885        -1.014652         2.335047
 H         2.377203        -2.174039         0.145853
