19
Iteration:  3725charge 0 multiplicity 1
 C        -0.215699        -0.119261         0.065938
 C         1.390512        -0.237290         0.145399
 O         1.996721         0.039723        -1.185237
 C         3.241772        -0.129739        -0.492912
 C         3.421855         1.128912         0.365334
 C         2.115838         0.710049         1.159263
 O         1.483436         1.834304         1.722820
 C         2.687832        -0.543665         1.912730
 C         2.544375        -1.165166         0.583643
 H        -0.766662        -0.517706         0.921725
 H        -0.589158         0.863458        -0.339588
 H        -0.516969        -1.012168        -0.678119
 H         4.146222        -0.517621        -1.092276
 H         4.288966         1.059950         1.039312
 H         3.661982         2.121536        -0.175821
 H         0.625642         1.833032         2.126874
 H         3.723166        -0.581525         2.343628
 H         1.991409        -0.950453         2.603237
 H         2.520078        -2.230628         0.246885
