19
Iteration:   966
 C        -0.201101        -0.415387        -0.281406
 C         1.296332        -0.104823        -0.077743
 O         2.114534         0.184726        -1.281123
 C         3.235499        -0.167761        -0.403059
 C         3.430814         1.006990         0.617385
 C         2.062114         0.753263         1.351710
 O         1.813867         2.029897         1.907788
 C         2.416426        -0.627944         1.923267
 C         2.363812        -1.145763         0.428241
 H        -0.559553        -0.730116         0.762201
 H        -0.658587         0.568087        -0.507121
 H        -0.567839        -1.275851        -0.926852
 H         4.072140        -0.560364        -0.877759
 H         4.183602         0.930871         1.404236
 H         3.665473         1.944719         0.094579
 H         1.505350         1.936090         2.860507
 H         3.484021        -0.747851         2.352352
 H         1.636857        -1.142650         2.524081
 H         2.150246        -2.147258         0.052425
