19
Iteration:  2675charge 0 multiplicity 1
 C        -0.098809        -0.286958        -0.023325
 C         1.390255        -0.029410         0.081894
 O         2.011069         0.066175        -1.265062
 C         3.295474        -0.244892        -0.451439
 C         3.458345         1.114157         0.244470
 C         2.171108         0.817979         1.211181
 O         1.579252         1.828315         1.905204
 C         2.426208        -0.512357         1.942814
 C         2.378464        -1.128593         0.590509
 H        -0.378512        -1.191684         0.644630
 H        -0.825184         0.547274         0.208864
 H        -0.431311        -0.766151        -1.013010
 H         4.136390        -0.750429        -0.987287
 H         4.514704         1.190738         0.643967
 H         3.364348         1.984188        -0.471581
 H         1.316949         1.359812         2.699440
 H         3.456226        -0.528968         2.351094
 H         1.596808        -0.935235         2.619576
 H         2.556960        -2.192287         0.379688
