19
Iteration:   545
 C        -0.185851         0.074149        -0.077267
 C         1.397543        -0.052250        -0.026080
 O         2.092710         0.237291        -1.172103
 C         3.280251        -0.244592        -0.383100
 C         3.653251         0.917076         0.416527
 C         2.159155         0.748568         1.206689
 O         1.300908         1.693136         1.818784
 C         2.520084        -0.664439         1.941629
 C         2.440581        -1.208276         0.470708
 H        -0.652604        -0.096870         0.935501
 H        -0.299017         1.076536        -0.615229
 H        -0.497453        -0.693879        -0.837324
 H         3.997448        -0.681111        -1.169449
 H         4.482708         0.741331         1.153323
 H         3.657437         1.901236        -0.094281
 H         1.046460         1.414478         2.714490
 H         3.417192        -0.359942         2.552025
 H         1.766888        -1.033775         2.671145
 H         2.603537        -2.218299         0.221396
