19
Iteration:  3477
 C        -0.055063        -0.394414        -0.013421
 C         1.405472        -0.081143         0.133916
 O         1.919074         0.202603        -1.146292
 C         3.251622        -0.277502        -0.500173
 C         3.447553         1.036202         0.334643
 C         2.167541         0.771127         1.173656
 O         1.532235         1.888940         1.848508
 C         2.393525        -0.546112         1.918329
 C         2.542404        -1.117286         0.527649
 H        -0.476937        -0.583079         1.036443
 H        -0.769845         0.386268        -0.469019
 H        -0.084396        -1.269964        -0.683693
 H         4.122079        -0.586749        -1.144018
 H         4.305882         1.007093         1.043694
 H         3.324935         1.915330        -0.365355
 H         2.106521         2.624493         1.691076
 H         3.323134        -0.676425         2.514066
 H         1.535206        -1.014308         2.443215
 H         2.554345        -2.173115         0.279893
