19
Iteration:  3236
 C        -0.109175        -0.130050         0.147447
 C         1.394398        -0.083676         0.048541
 O         2.102077         0.024205        -1.294933
 C         3.351136        -0.242895        -0.487455
 C         3.398134         1.045969         0.286070
 C         2.116904         0.769347         1.154293
 O         1.422209         1.680782         1.910275
 C         2.555405        -0.461305         1.967848
 C         2.449207        -1.082387         0.502314
 H        -0.281676        -0.430621         1.149719
 H        -0.881160         0.703780         0.062275
 H        -0.443007        -1.055049        -0.435050
 H         4.110856        -0.711417        -1.067853
 H         4.218374         1.267453         1.014278
 H         3.375737         1.973774        -0.345122
 H         1.005335         2.322274         1.285133
 H         3.479985        -0.375950         2.652331
 H         1.803259        -0.815540         2.632112
 H         2.359648        -2.167188         0.247682
