19
Iteration:  3059
 C        -0.113365        -0.168337         0.215329
 C         1.446819        -0.202150         0.055763
 O         1.950689         0.136771        -1.186942
 C         3.269729        -0.215213        -0.490475
 C         3.490686         1.036940         0.426414
 C         2.163491         0.743948         1.178957
 O         1.308865         1.808357         1.680797
 C         2.634103        -0.547007         1.904884
 C         2.491952        -1.185213         0.516812
 H        -0.625757        -0.411605         1.190782
 H        -0.325113         0.878728        -0.104178
 H        -0.554345        -0.756346        -0.593355
 H         4.107219        -0.570503        -1.135972
 H         4.301612         0.887082         1.224084
 H         3.743579         2.020413        -0.036303
 H         1.614846         2.652267         1.244638
 H         3.662941        -0.513906         2.354812
 H         1.708970        -0.860985         2.457945
 H         2.605802        -2.230601         0.273790
