19
Iteration:  4085charge 0 multiplicity 1
 C        -0.127479        -0.250357         0.082361
 C         1.384858        -0.153239         0.079067
 O         2.043195         0.029151        -1.234533
 C         3.284955        -0.164183        -0.473324
 C         3.447708         1.084346         0.387898
 C         2.053592         0.762079         1.160716
 O         1.505932         1.764575         1.854597
 C         2.488421        -0.469906         1.905425
 C         2.541306        -1.088772         0.525751
 H        -0.359279        -0.092504         1.136862
 H        -0.636919         0.591809        -0.321193
 H        -0.479873        -1.241305        -0.350302
 H         4.130955        -0.594455        -1.013211
 H         4.295503         0.906347         1.028197
 H         3.494113         2.017931        -0.164427
 H         1.142263         2.435222         1.301268
 H         3.524016        -0.505428         2.212628
 H         1.666517        -0.937245         2.383743
 H         2.560593        -2.145003         0.325069
