19
Iteration:  4087
 C        -0.130069        -0.262276         0.079698
 C         1.398418        -0.164803         0.087528
 O         2.052136         0.028163        -1.233006
 C         3.286996        -0.157517        -0.469407
 C         3.434968         1.079725         0.386797
 C         2.042069         0.745036         1.169762
 O         1.511189         1.764680         1.856781
 C         2.479178        -0.443009         1.880864
 C         2.555095        -1.097887         0.521058
 H        -0.415589        -0.036822         1.147576
 H        -0.633517         0.663790        -0.279982
 H        -0.459328        -1.189531        -0.348453
 H         4.073676        -0.623177        -1.045523
 H         4.311152         0.910995         1.035529
 H         3.435094         2.001167        -0.121163
 H         1.198676         2.489115         1.289207
 H         3.557710        -0.505629         2.208406
 H         1.633731        -0.918116         2.449898
 H         2.490801        -2.095748         0.282367
