19
Iteration:  3964charge 0 multiplicity 1
 C        -0.122116        -0.375889         0.002675
 C         1.398213        -0.137144         0.073316
 O         2.041276         0.109761        -1.195280
 C         3.260021        -0.233876        -0.436069
 C         3.389763         1.088028         0.282481
 C         2.161214         0.819076         1.129003
 O         1.456619         1.844615         1.837320
 C         2.544243        -0.500837         1.979420
 C         2.448421        -1.105702         0.550511
 H        -0.234987        -0.853937         0.966699
 H        -0.650021         0.565584        -0.034867
 H        -0.624198        -1.081319        -0.836238
 H         4.163478        -0.634711        -0.954528
 H         4.310338         1.173729         0.809492
 H         3.328076         1.956329        -0.427556
 H         2.181826         2.275804         2.349812
 H         3.606282        -0.623893         2.413721
 H         1.644286        -0.708557         2.549755
 H         2.349801        -2.201918         0.384927
