19
Iteration:  4434
 C        -0.132293        -0.329180         0.105246
 C         1.379613        -0.089023         0.051061
 O         2.026342         0.016606        -1.178760
 C         3.251941        -0.189860        -0.494641
 C         3.361118         1.072023         0.336980
 C         2.197304         0.838378         1.134397
 O         1.417308         1.785155         1.893539
 C         2.608570        -0.468877         1.862009
 C         2.524527        -1.134698         0.541880
 H        -0.528240        -0.442311         1.191687
 H        -0.612648         0.432403        -0.449891
 H        -0.324697        -1.207197        -0.513422
 H         4.017412        -0.352548        -1.173404
 H         4.326904         1.006984         1.008333
 H         3.261558         1.998047        -0.257154
 H         1.832221         2.691732         1.689233
 H         3.588795        -0.504619         2.359670
 H         1.694943        -0.784889         2.344098
 H         2.356730        -2.277078         0.396586
