19
Iteration:  1776charge 0 multiplicity 1
 C        -0.064195        -0.165926        -0.144122
 C         1.398327        -0.053121         0.093554
 O         1.992687         0.220789        -1.146642
 C         3.323651        -0.188493        -0.520123
 C         3.459344         1.041186         0.463289
 C         2.124749         0.700005         1.278282
 O         1.518111         1.776100         1.880533
 C         2.374418        -0.679458         1.907518
 C         2.484396        -1.166717         0.438255
 H        -0.740208        -0.393708         0.721933
 H        -0.465254         0.781463        -0.623222
 H        -0.245405        -0.933953        -0.910870
 H         4.156814        -0.436256        -1.183818
 H         4.363555         1.002925         1.168341
 H         3.439053         2.068030         0.033560
 H         2.232525         2.289313         2.289917
 H         3.081564        -1.052304         2.751968
 H         1.430437        -1.173635         2.294985
 H         2.367536        -2.170985        -0.008774
