19
Iteration:   684charge 0 multiplicity 1
 C        -0.139553        -0.050110        -0.120635
 C         1.381308        -0.137500         0.074578
 O         2.103462         0.145023        -1.257382
 C         3.306435        -0.148961        -0.472479
 C         3.431998         0.966488         0.549117
 C         2.093520         0.708468         1.223409
 O         1.587604         1.878169         1.829170
 C         2.383148        -0.652237         1.945546
 C         2.473923        -1.228426         0.428861
 H        -0.696593        -0.481273         0.706600
 H        -0.434332         0.985936        -0.222824
 H        -0.501497        -0.670415        -0.935987
 H         4.307849        -0.410477        -1.046892
 H         4.173166         0.721601         1.318866
 H         3.615061         1.998792         0.157390
 H         1.095476         1.671704         2.683836
 H         3.190019        -0.600649         2.681709
 H         1.502560        -1.060625         2.384818
 H         2.532141        -2.236691         0.048055
