19
Iteration:   131
 C        -0.053176        -0.225525        -0.260584
 C         1.420794        -0.066185         0.100231
 O         2.116147         0.253833        -1.129885
 C         3.255802        -0.165312        -0.516017
 C         3.393023         0.983690         0.433410
 C         2.107301         0.665874         1.268677
 O         1.701166         1.877467         1.800289
 C         2.328758        -0.624720         2.024463
 C         2.361439        -1.191554         0.546026
 H        -0.655848        -0.701684         0.484645
 H        -0.600353         0.622205        -0.605193
 H        -0.015519        -0.892089        -1.089910
 H         3.991546        -0.403780        -1.289849
 H         4.241169         1.012107         1.149204
 H         3.372359         1.960679        -0.095178
 H         0.973501         1.626294         2.370322
 H         3.154280        -0.851004         2.702424
 H         1.483382        -0.941670         2.530035
 H         2.227618        -2.258577         0.437310
