19
Iteration:   610charge 0 multiplicity 1
 C        -0.189689        -0.305628        -0.078599
 C         1.374122        -0.111854        -0.129387
 O         2.149585         0.185213        -1.250397
 C         3.295105        -0.157057        -0.481591
 C         3.463536         0.998656         0.547764
 C         2.138025         0.758773         1.191959
 O         1.741171         1.925995         2.110582
 C         2.267917        -0.571720         1.851913
 C         2.384338        -1.202975         0.427647
 H        -0.611506        -0.779116         0.851997
 H        -0.665315         0.591120        -0.529216
 H        -0.528035        -1.005504        -0.893973
 H         4.295560        -0.572308        -0.914539
 H         4.379591         0.758732         1.170344
 H         3.674589         1.940033        -0.002130
 H         0.798207         1.888062         1.999203
 H         3.014056        -0.759372         2.665448
 H         1.294411        -0.750547         2.328752
 H         2.315065        -2.200097         0.081084
