19
Iteration:  3661
 C        -0.156446        -0.453744         0.087916
 C         1.338250        -0.200701        -0.022884
 O         2.047200         0.059926        -1.329143
 C         3.282997        -0.097135        -0.442174
 C         3.353053         1.098993         0.446617
 C         2.134548         0.812694         1.255310
 O         1.738973         1.942298         1.851384
 C         2.443855        -0.463986         1.880415
 C         2.392489        -1.146773         0.471947
 H        -0.264834        -0.577320         1.172640
 H        -0.978847         0.267659        -0.174329
 H        -0.422033        -1.333067        -0.587865
 H         4.206932        -0.644468        -0.870300
 H         4.404881         1.184477         0.823195
 H         3.188867         2.088431        -0.214000
 H         1.370370         1.778153         2.708521
 H         3.364388        -0.538195         2.503061
 H         1.603464        -0.848687         2.440905
 H         2.493471        -2.218040         0.179314
