19
Iteration:  1911
 C        -0.137777        -0.022390        -0.179002
 C         1.349197        -0.062328         0.017916
 O         2.099845         0.088610        -1.297726
 C         3.268787        -0.159768        -0.457716
 C         3.525225         1.115609         0.500458
 C         2.110104         0.767921         1.233161
 O         1.498557         1.649839         2.064545
 C         2.589661        -0.692466         1.901531
 C         2.355983        -1.160576         0.473153
 H        -0.707711         0.032152         0.752089
 H        -0.404564         0.921558        -0.779859
 H        -0.471392        -0.948246        -0.731332
 H         4.070571        -0.760969        -0.950579
 H         4.316257         0.962668         1.244035
 H         3.595933         2.186499         0.143195
 H         0.682989         1.950569         1.535577
 H         3.580416        -0.618373         2.404262
 H         1.742960        -0.989280         2.618159
 H         2.295432        -2.210638         0.099313
