19
Iteration:  3977charge 0 multiplicity 1
 C        -0.050573        -0.369583         0.084385
 C         1.366436        -0.096487         0.060623
 O         2.088478         0.068547        -1.227888
 C         3.280176        -0.243811        -0.482221
 C         3.353794         1.096455         0.297233
 C         2.123388         0.787328         1.185780
 O         1.538680         1.787943         1.875161
 C         2.450913        -0.410352         1.896292
 C         2.430130        -1.126719         0.566814
 H        -0.623287        -0.961002         0.850926
 H        -0.658922         0.583034        -0.171183
 H        -0.055921        -1.007760        -0.897116
 H         4.016338        -0.595925        -1.206537
 H         4.252214         1.435799         0.836842
 H         3.026457         1.842220        -0.425719
 H         2.180834         2.453498         2.182017
 H         3.359780        -0.400419         2.642278
 H         1.719276        -0.806270         2.644629
 H         2.301675        -2.113414         0.353509
