19
Iteration:  2791charge 0 multiplicity 1
 C        -0.168724        -0.485588        -0.031849
 C         1.329996        -0.155395         0.008756
 O         2.052904         0.080064        -1.240209
 C         3.258138        -0.153825        -0.501577
 C         3.442719         1.085978         0.325857
 C         2.107038         0.845645         1.171284
 O         1.755595         1.964876         2.047971
 C         2.393999        -0.579720         1.937458
 C         2.416476        -1.108592         0.514876
 H        -0.385635        -0.561171         1.013031
 H        -0.847883         0.283644        -0.501211
 H        -0.371019        -1.488794        -0.443224
 H         4.068278        -0.564532        -1.189129
 H         4.342352         1.060715         1.002014
 H         3.470118         2.087618        -0.188278
 H         1.059737         2.573751         1.681211
 H         3.354893        -0.622737         2.448896
 H         1.536688        -0.869800         2.548421
 H         2.493229        -2.216131         0.084171
