19
Iteration:  2379charge 0 multiplicity 1
 C        -0.094306        -0.012366        -0.000417
 C         1.388423        -0.148231         0.019234
 O         2.072974         0.048711        -1.208363
 C         3.261596        -0.207203        -0.392531
 C         3.426963         1.135293         0.287952
 C         2.219656         0.707014         1.188566
 O         1.488219         1.704344         1.952459
 C         2.453976        -0.573614         1.918049
 C         2.460210        -1.123301         0.460611
 H        -0.577387         0.181166         0.927026
 H        -0.380351         0.967349        -0.564094
 H        -0.632750        -0.850777        -0.469413
 H         4.044037        -0.620187        -0.957109
 H         4.560940         1.266551         0.563225
 H         3.196285         2.003311        -0.366515
 H         1.068295         1.141012         2.684239
 H         3.385913        -0.666997         2.482417
 H         1.524681        -0.872809         2.488099
 H         2.442409        -2.154321         0.003468
