19
Iteration:  2939
 C        -0.117937        -0.393871        -0.003811
 C         1.333814        -0.077768         0.071719
 O         1.975459         0.145532        -1.263545
 C         3.197156        -0.225373        -0.429096
 C         3.471781         1.023184         0.378039
 C         2.174066         0.769433         1.176177
 O         1.489914         1.851169         1.846696
 C         2.590329        -0.489401         1.948998
 C         2.472482        -1.152259         0.549406
 H        -0.698386        -0.417404         1.016024
 H        -0.435820         0.487183        -0.580379
 H        -0.312582        -1.267818        -0.614877
 H         4.005802        -0.665659        -1.039138
 H         4.508247         1.139200         0.843390
 H         3.402442         1.943882        -0.250663
 H         2.048987         2.581054         2.050328
 H         3.605524        -0.349954         2.443535
 H         1.766479        -0.937862         2.619387
 H         2.200744        -2.129186         0.356470
