19
Iteration:  3983
 C        -0.049686        -0.353817         0.062132
 C         1.388338        -0.069283         0.122459
 O         2.043246         0.032191        -1.284447
 C         3.311574        -0.227275        -0.477816
 C         3.343619         1.111674         0.316215
 C         2.148452         0.807029         1.164498
 O         1.544572         1.814370         1.912753
 C         2.439746        -0.456776         1.926463
 C         2.417282        -1.164170         0.540779
 H        -0.461770        -1.015178         0.795057
 H        -0.592888         0.477171        -0.279614
 H        -0.216297        -0.992526        -0.800939
 H         4.035944        -0.629745        -1.220525
 H         4.171211         1.500540         0.929399
 H         3.156645         1.939919        -0.416607
 H         2.152898         2.602946         2.067219
 H         3.238706        -0.152939         2.574056
 H         1.647706        -0.922955         2.506551
 H         2.473798        -2.345595         0.410055
