19
Iteration:  3732
 C        -0.165423        -0.139205         0.142749
 C         1.358927        -0.227453         0.116499
 O         2.035979         0.046343        -1.190539
 C         3.256095        -0.162836        -0.395467
 C         3.402046         1.099454         0.340257
 C         2.099560         0.738671         1.201386
 O         1.466860         1.882565         1.702572
 C         2.649479        -0.593460         1.887959
 C         2.593844        -1.186026         0.479399
 H        -0.753831        -0.257582         1.056929
 H        -0.625856         0.731434        -0.246943
 H        -0.423436        -0.759969        -0.708697
 H         4.017253        -0.336322        -1.106142
 H         4.259548         1.129958         1.007011
 H         3.385808         1.976512        -0.253586
 H         0.616860         1.788543         2.094512
 H         3.700103        -0.513459         2.243625
 H         1.866870        -0.888684         2.641322
 H         2.585463        -2.306968         0.275539
