19
Iteration:   531
 C        -0.126570         0.051677        -0.094008
 C         1.370664        -0.009828         0.022023
 O         2.115078         0.213280        -1.243343
 C         3.328469        -0.283511        -0.475624
 C         3.486902         0.925737         0.541400
 C         2.125884         0.731379         1.134008
 O         1.354156         1.664784         1.860512
 C         2.480195        -0.549573         1.909583
 C         2.485112        -1.206978         0.519802
 H        -0.546157        -0.102666         0.880783
 H        -0.524232         0.987947        -0.282491
 H        -0.548283        -0.660766        -0.743170
 H         4.198663        -0.537214        -1.106219
 H         4.252155         0.778716         1.289565
 H         3.788850         1.766466        -0.074199
 H         1.687859         1.555422         2.765807
 H         3.387856        -0.777266         2.395845
 H         1.635145        -0.920774         2.420056
 H         2.353147        -2.265536         0.357805
