19
Iteration:  4449charge 0 multiplicity 1
 C        -0.070085        -0.369410         0.045268
 C         1.390345        -0.201821         0.093390
 O         1.947030         0.071807        -1.267964
 C         3.244484        -0.165640        -0.538934
 C         3.498065         1.099141         0.351210
 C         2.080793         0.802114         1.228921
 O         1.455722         1.852513         1.903171
 C         2.575439        -0.474258         1.942952
 C         2.471925        -1.133871         0.502636
 H        -0.388883        -0.347018         1.078339
 H        -0.560037         0.460726        -0.503638
 H        -0.437813        -1.334419        -0.268245
 H         4.083366        -0.612679        -1.184406
 H         4.387093         1.014161         1.014305
 H         3.516928         2.014143        -0.239787
 H         1.521653         2.650610         1.360419
 H         3.580997        -0.446679         2.484726
 H         2.045125        -0.953664         2.800054
 H         2.511519        -2.131948         0.262339
