19
Iteration:  1766charge 0 multiplicity 1
 C        -0.117859        -0.117198        -0.170524
 C         1.378970        -0.071543         0.075677
 O         2.100260         0.158076        -1.176124
 C         3.228306        -0.164073        -0.500266
 C         3.430554         1.013523         0.495491
 C         2.088289         0.695957         1.247245
 O         1.506120         1.766956         1.936576
 C         2.443289        -0.672528         1.894725
 C         2.523426        -1.150894         0.422579
 H        -0.644298        -0.257412         0.808085
 H        -0.312559         0.937734        -0.561223
 H        -0.299153        -0.914997        -0.873376
 H         4.034667        -0.425081        -1.200080
 H         4.270345         0.915960         1.242598
 H         3.449695         1.885182        -0.185459
 H         2.071088         2.254499         2.506875
 H         3.386393        -0.468206         2.506721
 H         1.535956        -1.223140         2.273652
 H         2.109311        -2.128402         0.210977
