19
Iteration:  1448charge 0 multiplicity 1
 C        -0.128916        -0.280288        -0.204082
 C         1.362649        -0.033433         0.019447
 O         2.091348         0.226556        -1.198030
 C         3.305857        -0.299903        -0.461544
 C         3.480251         1.105085         0.427252
 C         2.221920         0.801265         1.251540
 O         1.486788         1.747913         1.954703
 C         2.454551        -0.573725         1.893235
 C         2.267810        -1.131781         0.523141
 H        -0.438380        -0.863600         0.685397
 H        -0.612610         0.682590        -0.105514
 H        -0.118190        -0.938757        -1.117445
 H         3.999330        -0.777594        -1.080255
 H         4.282052         1.032100         1.237236
 H         3.542650         1.993598        -0.211696
 H         2.089132         2.095707         2.595347
 H         3.416658        -1.034763         2.202062
 H         1.690546        -0.881058         2.589103
 H         2.327928        -2.160009         0.184444
