19
Iteration:  4928
 C        -0.126540        -0.309166         0.154389
 C         1.395102        -0.119152         0.059662
 O         1.985635         0.052509        -1.246836
 C         3.281209        -0.277197        -0.636614
 C         3.424876         1.125678         0.356345
 C         2.117993         0.817570         1.192197
 O         1.398610         1.814667         1.870457
 C         2.575466        -0.468452         1.949238
 C         2.582755        -1.131448         0.509445
 H        -0.390960        -0.425949         1.161390
 H        -0.660351         0.428415        -0.442383
 H        -0.326170        -1.330264        -0.299812
 H         4.229969        -0.535477        -1.180257
 H         4.338663         1.032832         0.864139
 H         3.102723         1.883346        -0.319292
 H         2.060935         2.538655         2.180338
 H         3.438751        -0.415107         2.742509
 H         1.656459        -0.831913         2.516539
 H         2.389995        -2.096340         0.250790
