19
Iteration:  2214charge 0 multiplicity 1
 C        -0.146930         0.024765        -0.122451
 C         1.370330        -0.085277         0.061992
 O         2.017121         0.146240        -1.250724
 C         3.354938        -0.283330        -0.401388
 C         3.419030         1.095733         0.387205
 C         2.209266         0.718340         1.200802
 O         1.400511         1.705595         1.927702
 C         2.592969        -0.650899         1.913282
 C         2.416446        -1.156785         0.461773
 H        -0.614605        -0.288093         0.791089
 H        -0.183518         1.145811        -0.266658
 H        -0.288709        -0.771600        -0.794143
 H         4.210091        -0.695710        -0.925766
 H         4.370381         1.367164         0.950055
 H         3.343631         2.044696        -0.192311
 H         1.189893         1.337069         2.782271
 H         3.560855        -0.633296         2.379338
 H         1.784780        -1.068613         2.508160
 H         2.352059        -2.240216         0.389347
