19
Iteration:  2153charge 0 multiplicity 1
 C        -0.084211        -0.329042        -0.028136
 C         1.366929        -0.041982         0.052587
 O         2.120029         0.253391        -1.157775
 C         3.282481        -0.098114        -0.484124
 C         3.431937         1.038119         0.415576
 C         2.192181         0.737610         1.252303
 O         1.694318         1.876482         1.913120
 C         2.273108        -0.713040         1.866037
 C         2.402117        -1.166070         0.382511
 H        -0.600474        -0.167345         0.900348
 H        -0.702789         0.193396        -0.725298
 H        -0.263142        -1.394537        -0.336552
 H         4.158826        -0.415146        -1.080433
 H         4.334134         0.954561         0.978622
 H         3.280200         1.964407        -0.088722
 H         0.809814         1.623691         2.200475
 H         3.040348        -0.973812         2.643854
 H         1.282846        -0.970429         2.325576
 H         2.276507        -2.229909         0.089350
