19
Iteration:  1993
 C        -0.100851        -0.301769        -0.050999
 C         1.422105        -0.059290         0.004277
 O         2.122993         0.326599        -1.190588
 C         3.278168        -0.228525        -0.489373
 C         3.453619         0.964837         0.527158
 C         2.106658         0.838979         1.237378
 O         1.484320         1.841285         1.837124
 C         2.407651        -0.772500         1.895714
 C         2.372694        -1.130242         0.415654
 H        -0.283757        -0.574329         1.037741
 H        -0.479487         0.725869        -0.282013
 H        -0.503057        -1.079626        -0.727095
 H         4.079999        -0.341179        -1.229497
 H         4.279708         0.794307         1.296776
 H         3.482842         1.919879        -0.030534
 H         2.119566         2.090016         2.561953
 H         3.391140        -0.897244         2.373396
 H         1.589688        -1.092134         2.499654
 H         2.326236        -2.181885         0.144316
