19
Iteration:  3202
 C        -0.084294        -0.279998         0.080821
 C         1.389991        -0.235170         0.035605
 O         2.001786         0.106826        -1.231002
 C         3.283858        -0.186542        -0.555089
 C         3.467253         1.093621         0.392072
 C         2.171772         0.822253         1.163288
 O         1.469950         1.837631         1.925511
 C         2.497157        -0.494321         1.941109
 C         2.424078        -1.180763         0.519987
 H        -0.110614        -0.342224         1.150581
 H        -0.563428         0.601438        -0.456484
 H        -0.368689        -1.308520        -0.310005
 H         4.033693        -0.578082        -1.269347
 H         4.322876         0.926978         1.121032
 H         3.588561         2.028273        -0.206328
 H         1.170473         2.420950         1.229488
 H         3.506675        -0.478991         2.488592
 H         1.614775        -0.813785         2.479946
 H         2.460975        -2.257796         0.203095
