19
Iteration:  4868charge 0 multiplicity 1
 C        -0.139279        -0.276532         0.030305
 C         1.385544        -0.193441         0.150604
 O         1.971911         0.025783        -1.237758
 C         3.262834        -0.193184        -0.550900
 C         3.320464         1.048681         0.262608
 C         2.087202         0.756394         1.182007
 O         1.571927         1.928766         1.925627
 C         2.599857        -0.544459         1.975066
 C         2.603116        -1.041093         0.539890
 H        -0.690671        -0.329647         0.995684
 H        -0.625778         0.608814        -0.467555
 H        -0.359659        -1.188451        -0.497897
 H         4.255744        -0.387426        -0.952751
 H         4.332818         0.958281         0.652832
 H         3.438847         2.054847        -0.159323
 H         0.619008         1.927850         1.579124
 H         3.438042        -0.530950         2.595710
 H         1.767845        -1.093634         2.379303
 H         2.693011        -2.187614         0.270394
