19
Iteration:   381charge 0 multiplicity 1
 C        -0.125089         0.071737        -0.062802
 C         1.372938        -0.075411        -0.030256
 O         2.081773         0.018020        -1.298566
 C         3.437836        -0.177769        -0.452591
 C         3.485287         1.045526         0.530544
 C         2.067964         0.724421         1.233055
 O         1.377075         1.724724         1.966202
 C         2.355971        -0.706367         1.907392
 C         2.568770        -1.167902         0.409109
 H        -0.535318         0.086050         1.019777
 H        -0.276352         1.143983        -0.556597
 H        -0.756428        -0.537900        -0.812874
 H         4.252162        -0.523038        -1.150715
 H         4.161235         0.804331         1.394609
 H         3.692091         2.008477        -0.023043
 H         2.006708         2.476617         2.074438
 H         3.264871        -0.844553         2.661540
 H         1.514361        -1.170606         2.474245
 H         2.371355        -2.130392         0.292232
