19
Iteration:  4822charge 0 multiplicity 1
 C        -0.089818        -0.380772         0.182067
 C         1.382667        -0.046961         0.055375
 O         2.062554         0.120611        -1.239758
 C         3.265363        -0.236543        -0.464844
 C         3.412632         1.037978         0.302796
 C         2.039822         0.820189         1.201656
 O         1.463000         1.898682         1.729129
 C         2.579667        -0.571374         1.946248
 C         2.505852        -1.098380         0.495191
 H        -0.256114        -0.801040         1.126810
 H        -0.816833         0.533746         0.158661
 H        -0.551884        -1.077318        -0.609208
 H         4.023197        -0.626963        -1.029790
 H         4.226550         1.214839         0.976149
 H         3.662563         1.905948        -0.452719
 H         1.442392         1.635069         2.720950
 H         3.487367        -0.627596         2.452824
 H         1.800339        -0.822039         2.590242
 H         2.422516        -2.146249         0.076337
