19
Iteration:  1897
 C        -0.157024         0.027719        -0.207681
 C         1.395077        -0.134473         0.000017
 O         2.104677         0.042353        -1.269916
 C         3.310878        -0.120355        -0.472517
 C         3.411241         1.022589         0.529095
 C         2.177363         0.686716         1.274823
 O         1.464128         1.709424         2.099973
 C         2.535127        -0.574704         1.871435
 C         2.363556        -1.203666         0.455916
 H        -0.666540        -0.076292         0.748007
 H        -0.271000         1.093982        -0.618343
 H        -0.500251        -0.600796        -0.977202
 H         4.217346        -0.071584        -1.126455
 H         4.433888         0.872995         0.965457
 H         3.511529         1.936391        -0.095326
 H         0.685759         2.100322         1.725747
 H         3.663311        -0.672900         2.115350
 H         2.096833        -1.046078         2.810773
 H         2.297244        -2.242435         0.240790
