19
Iteration:  2797charge 0 multiplicity 1
 C        -0.103287        -0.472119        -0.069651
 C         1.299436        -0.141397        -0.015062
 O         2.019757         0.071717        -1.187986
 C         3.240897        -0.187342        -0.464792
 C         3.407509         1.095446         0.310320
 C         2.102357         0.884285         1.180198
 O         1.784530         1.943698         2.033520
 C         2.404083        -0.591743         1.914501
 C         2.445520        -1.126265         0.516236
 H        -0.396495        -0.623579         1.043124
 H        -0.809858         0.228289        -0.445474
 H        -0.362031        -1.420165        -0.548348
 H         4.111293        -0.332636        -1.067358
 H         4.288389         1.329944         0.908088
 H         3.397926         2.039972        -0.213747
 H         1.271095         2.609806         1.614292
 H         3.306472        -0.637210         2.561038
 H         1.503426        -1.085586         2.356542
 H         2.276322        -2.104925         0.280386
