19
Iteration:   673
 C        -0.174494        -0.191131        -0.183904
 C         1.342857        -0.177746        -0.049856
 O         2.053503         0.250511        -1.152154
 C         3.309479        -0.207683        -0.355329
 C         3.475936         0.947286         0.555693
 C         2.098389         0.715166         1.185220
 O         1.632788         1.950116         1.829822
 C         2.433111        -0.678615         1.900195
 C         2.456333        -1.143855         0.473491
 H        -0.733255        -0.583083         0.650950
 H        -0.491582         0.838153        -0.319502
 H        -0.415365        -0.602807        -1.157255
 H         4.011319        -0.642894        -1.181923
 H         4.321503         0.709301         1.218479
 H         3.523881         2.022150         0.264619
 H         1.312358         1.693891         2.722792
 H         3.311485        -0.836614         2.533358
 H         1.563303        -1.010985         2.397432
 H         2.326933        -2.170378         0.191964
