19
Iteration:  2159
 C        -0.095552        -0.308640        -0.027725
 C         1.371663        -0.038234         0.040073
 O         2.108157         0.240624        -1.187051
 C         3.273073        -0.154942        -0.491945
 C         3.437397         1.055664         0.446282
 C         2.183662         0.742131         1.221698
 O         1.671386         1.857602         1.932214
 C         2.260173        -0.729768         1.892747
 C         2.457618        -1.156130         0.418893
 H        -0.494493        -0.105429         0.992611
 H        -0.518246         0.339182        -0.930700
 H        -0.233479        -1.329577        -0.370815
 H         3.977548        -0.385855        -1.297547
 H         4.414345         1.004584         1.010955
 H         3.191427         1.956437        -0.196771
 H         0.827292         1.756135         2.460300
 H         3.113767        -0.838092         2.548323
 H         1.284342        -0.951323         2.334694
 H         2.326271        -2.151484         0.002192
