19
Iteration:  2458charge 0 multiplicity 1
 C        -0.039550        -0.423263         0.036621
 C         1.383083        -0.106930         0.086101
 O         2.005371         0.211988        -1.194222
 C         3.284562        -0.139616        -0.537867
 C         3.424926         1.020135         0.408787
 C         2.142379         0.712021         1.237170
 O         1.761562         1.929534         1.850521
 C         2.300216        -0.562203         1.934717
 C         2.374051        -1.095228         0.435289
 H        -0.287873        -1.145962         0.859670
 H        -0.651141         0.455534         0.206429
 H        -0.329615        -0.843244        -0.972546
 H         3.994979        -0.564637        -1.329252
 H         4.290628         0.848200         1.116417
 H         3.391947         1.902517        -0.268241
 H         0.780500         2.017721         2.056719
 H         3.170964        -0.704237         2.578718
 H         1.425040        -1.113881         2.388189
 H         2.522386        -2.183131         0.126630
