19
Iteration:  4355charge 0 multiplicity 1
 C        -0.078968        -0.330640         0.108507
 C         1.396914        -0.190564         0.093442
 O         1.995795         0.144444        -1.201606
 C         3.204303        -0.189238        -0.539008
 C         3.459197         1.074525         0.338303
 C         2.218505         0.811142         1.204704
 O         1.355956         1.825150         1.701630
 C         2.584623        -0.478566         1.939075
 C         2.469780        -1.157129         0.531658
 H        -0.149096        -0.860886         1.046411
 H        -0.581002         0.662914         0.118131
 H        -0.565744        -1.044168        -0.640184
 H         4.035311        -0.506076        -1.194690
 H         4.333132         0.963941         0.988658
 H         3.527905         1.927477        -0.448987
 H         1.690042         2.105020         2.615013
 H         3.472181        -0.389924         2.532528
 H         1.910095        -0.699985         2.763185
 H         2.641351        -2.364444         0.559284
