19
Iteration:   410
 C        -0.030758        -0.052780        -0.085570
 C         1.379440        -0.096018        -0.046087
 O         2.194973         0.234289        -1.240460
 C         3.261634        -0.232423        -0.397817
 C         3.402262         1.044452         0.546941
 C         2.113633         0.723281         1.224302
 O         1.569877         1.720474         1.946709
 C         2.319964        -0.673941         1.861717
 C         2.411173        -1.228606         0.441777
 H        -0.419099        -0.159425         0.917230
 H        -0.436007         0.886291        -0.427998
 H        -0.509038        -0.748407        -0.755380
 H         4.074815        -0.635803        -0.944835
 H         4.155504         1.153195         1.312432
 H         3.296328         1.885919        -0.130734
 H         1.345552         2.490537         1.335483
 H         3.202471        -0.843568         2.448949
 H         1.476968        -0.952098         2.484177
 H         2.300190        -2.385210         0.392535
