19
Iteration:  1410charge 0 multiplicity 1
 C        -0.045561        -0.001604        -0.020229
 C         1.439514        -0.139803        -0.012988
 O         2.044699         0.083460        -1.270673
 C         3.305837        -0.167950        -0.522751
 C         3.373769         1.015911         0.500433
 C         2.071245         0.704969         1.231573
 O         1.422506         1.790635         1.846163
 C         2.446971        -0.676740         1.927477
 C         2.571864        -1.115554         0.475386
 H        -0.572961        -0.341090         0.898029
 H        -0.313005         1.108774        -0.080499
 H        -0.586090        -0.477767        -0.871775
 H         4.195543        -0.637526        -1.123824
 H         4.203746         0.795794         1.153272
 H         3.462942         2.067681         0.152967
 H         1.609756         1.842723         2.802218
 H         3.389965        -0.694140         2.481268
 H         1.564901        -1.066758         2.516081
 H         2.607701        -2.237624         0.378879
