19
Iteration:  2197
 C        -0.192713        -0.043869        -0.116799
 C         1.372861        -0.116500        -0.008122
 O         2.135060         0.076248        -1.216258
 C         3.236009        -0.185320        -0.495811
 C         3.499174         1.094833         0.466859
 C         2.091053         0.748485         1.233828
 O         1.492130         1.726728         1.962741
 C         2.551343        -0.595347         1.865646
 C         2.428869        -1.176802         0.506739
 H        -0.745240         0.025397         0.842609
 H        -0.486535         0.895438        -0.587467
 H        -0.736198        -0.871450        -0.739543
 H         4.060229        -0.436609        -1.217117
 H         4.322927         1.065858         1.152063
 H         3.503783         1.959868        -0.195185
 H         1.292769         1.357811         2.812948
 H         3.582325        -0.646087         2.319719
 H         1.890259        -0.958783         2.702578
 H         2.448348        -2.168585         0.009870
