19
Iteration:  4606charge 0 multiplicity 1
 C        -0.176299        -0.352500         0.069443
 C         1.341156        -0.112205         0.064775
 O         2.018401         0.056473        -1.228236
 C         3.293733        -0.221790        -0.451867
 C         3.506081         1.127839         0.291681
 C         2.203333         0.821575         1.207410
 O         1.393991         1.824841         1.811389
 C         2.542240        -0.489165         1.915048
 C         2.490399        -1.130065         0.498169
 H        -0.240693        -0.841042         1.024336
 H        -0.734289         0.569261         0.266678
 H        -0.532013        -1.053861        -0.700979
 H         4.140148        -0.520137        -0.990399
 H         4.307943         1.244118         0.958014
 H         3.521907         1.972986        -0.404629
 H         1.913038         2.193931         2.504800
 H         3.558346        -0.607283         2.388977
 H         1.602876        -0.712654         2.572324
 H         2.454360        -2.291311         0.378064
