19
Iteration:  3928charge 0 multiplicity 1
 C        -0.059364        -0.274813         0.089212
 C         1.387664        -0.158746         0.183057
 O         1.982608         0.078797        -1.179414
 C         3.266058        -0.120228        -0.562620
 C         3.397277         0.998720         0.397638
 C         2.149179         0.766115         1.169393
 O         1.414467         1.865574         1.609243
 C         2.585106        -0.527898         1.965151
 C         2.538990        -1.113244         0.510102
 H        -0.412420        -0.379419         1.145015
 H        -0.463978         0.720406         0.080975
 H        -0.567643        -1.031629        -0.531110
 H         4.098251        -0.455802        -1.202168
 H         4.199470         0.735347         1.127590
 H         3.451544         2.007867        -0.008951
 H         1.518914         1.920406         2.570372
 H         3.384544        -0.402171         2.681587
 H         1.757517        -1.028997         2.497710
 H         2.502738        -2.253730         0.195860
