19
Iteration:  1200
 C        -0.100176        -0.102633         0.003336
 C         1.409877        -0.092973        -0.012058
 O         2.106006         0.200668        -1.289743
 C         3.339905        -0.219438        -0.346893
 C         3.500172         1.051235         0.561303
 C         2.139165         0.752333         1.240647
 O         1.504643         1.887387         1.803398
 C         2.453779        -0.747930         1.871191
 C         2.311574        -1.225473         0.437684
 H        -0.456242        -0.256385         1.004646
 H        -0.512441         0.782137        -0.422825
 H        -0.483952        -0.962437        -0.491979
 H         4.325598        -0.342596        -0.949617
 H         4.386210         0.969882         1.171788
 H         3.337780         1.855589        -0.143666
 H         0.631838         1.567014         1.998679
 H         3.462084        -0.779811         2.311409
 H         1.730799        -1.159449         2.553581
 H         2.166811        -2.277974         0.155217
