19
Iteration:  3129charge 0 multiplicity 1
 C        -0.200630        -0.395514         0.017697
 C         1.346172        -0.002726         0.107568
 O         2.033506        -0.000424        -1.281624
 C         3.328467        -0.275851        -0.531459
 C         3.435635         1.073050         0.301340
 C         2.131322         0.865168         1.157943
 O         1.514018         1.809898         2.007189
 C         2.528235        -0.414258         1.909746
 C         2.447900        -1.105685         0.507244
 H        -0.397505        -0.806673         0.972230
 H        -0.832771         0.417603        -0.352285
 H        -0.177736        -1.245170        -0.688868
 H         4.096682        -0.747315        -1.144500
 H         4.264511         0.972115         0.989006
 H         3.435415         2.078526        -0.160699
 H         2.237975         2.491104         2.155346
 H         3.451358        -0.440942         2.542973
 H         1.621164        -0.588067         2.419960
 H         2.334628        -2.234346         0.487995
