19
Iteration:   118charge 0 multiplicity 1
 C        -0.079649        -0.244994        -0.324202
 C         1.335767        -0.131865         0.012920
 O         2.003514         0.166762        -1.195179
 C         3.251314        -0.181531        -0.385061
 C         3.389735         1.005340         0.571959
 C         2.157576         0.749441         1.313212
 O         1.732851         1.970715         1.821153
 C         2.427550        -0.714973         1.967313
 C         2.406286        -1.154717         0.507794
 H        -0.637303        -0.636430         0.516577
 H        -0.355396         0.806490        -0.513050
 H        -0.252779        -0.871635        -1.205960
 H         4.125576        -0.521055        -0.928451
 H         4.361186         0.955028         1.187551
 H         3.277627         1.999855         0.078413
 H         0.808554         2.007798         2.193609
 H         3.380565        -0.868462         2.574162
 H         1.500905        -1.089842         2.409484
 H         2.358736        -2.116646         0.179647
