19
Iteration:  4525
 C        -0.124477        -0.313123         0.138817
 C         1.361579        -0.085971         0.011706
 O         2.069038         0.042799        -1.216121
 C         3.257549        -0.222420        -0.533654
 C         3.419435         1.093213         0.356420
 C         2.060829         0.744820         1.123750
 O         1.530033         1.885069         1.868110
 C         2.569705        -0.496958         1.935027
 C         2.517895        -1.111148         0.527906
 H        -0.290725        -0.733017         1.164206
 H        -0.750383         0.541061        -0.190785
 H        -0.453260        -1.102565        -0.557952
 H         4.067495        -0.532298        -1.305616
 H         4.322406         1.017863         1.061942
 H         3.277694         1.986576        -0.298982
 H         0.572201         1.766907         1.908660
 H         3.610578        -0.213749         2.351846
 H         1.913787        -0.967915         2.756514
 H         2.404540        -2.127490         0.428040
