19
Iteration:  3055charge 0 multiplicity 1
 C        -0.118583        -0.173532         0.198630
 C         1.459598        -0.182839         0.053807
 O         1.950990         0.150686        -1.203054
 C         3.261356        -0.207419        -0.506502
 C         3.503799         1.016069         0.436589
 C         2.187026         0.781398         1.160986
 O         1.311048         1.792499         1.695123
 C         2.620356        -0.537602         1.919798
 C         2.494071        -1.198630         0.527686
 H        -0.532049        -0.446856         1.213262
 H        -0.334579         0.828030        -0.102581
 H        -0.533500        -0.832906        -0.568532
 H         4.055638        -0.483664        -1.175060
 H         4.266517         0.980975         1.180813
 H         3.612518         1.937140        -0.144597
 H         1.589387         2.588263         1.242001
 H         3.549909        -0.654624         2.441367
 H         1.763748        -0.896844         2.534583
 H         2.474259        -2.304955         0.482226
