19
Iteration:  2039charge 0 multiplicity 1
 C        -0.119722        -0.005152        -0.086627
 C         1.395871        -0.138091        -0.065768
 O         2.075062         0.041394        -1.243109
 C         3.285216        -0.113319        -0.453293
 C         3.475943         1.022910         0.415874
 C         2.091648         0.723278         1.251129
 O         1.413758         1.756494         1.960458
 C         2.522186        -0.570708         1.883354
 C         2.466099        -1.170558         0.477534
 H        -0.393494        -0.769650         0.639682
 H        -0.381839         1.099833         0.163662
 H        -0.476293        -0.156820        -1.075988
 H         4.173302        -0.486021        -0.977171
 H         4.321694         0.696295         1.049754
 H         3.571363         2.045279        -0.041166
 H         1.469508         1.503571         2.865491
 H         3.460450        -0.740654         2.445211
 H         1.598433        -0.915627         2.421420
 H         2.429140        -2.245195         0.431153
