19
Iteration:  1629
 C        -0.111683        -0.359773        -0.093445
 C         1.372780         0.001922         0.020615
 O         2.055384         0.249603        -1.233324
 C         3.293390        -0.188077        -0.470127
 C         3.569091         0.946670         0.539151
 C         2.158437         0.785454         1.141052
 O         1.507912         1.748612         1.962380
 C         2.326768        -0.522463         1.914248
 C         2.449235        -1.133733         0.425106
 H        -0.494720        -0.939824         0.731550
 H        -0.702489         0.560703        -0.109993
 H        -0.289860        -0.923610        -1.005041
 H         4.108584        -0.584627        -1.146384
 H         4.284806         0.757200         1.300462
 H         3.689099         1.924475         0.013365
 H         2.234895         2.384628         2.280529
 H         3.084258        -0.736887         2.671472
 H         1.314743        -0.857237         2.216299
 H         2.066482        -2.131685         0.135763
