19
Iteration:  3899
 C        -0.088249        -0.293022         0.213446
 C         1.399368        -0.194451         0.113540
 O         2.048229         0.136818        -1.205965
 C         3.323891        -0.225872        -0.461145
 C         3.439039         1.078844         0.331484
 C         2.220423         0.843235         1.157506
 O         1.400484         1.859027         1.695618
 C         2.463554        -0.536758         1.859433
 C         2.494846        -1.158778         0.499491
 H        -0.253840        -0.136090         1.261549
 H        -0.546466         0.659794        -0.041866
 H        -0.620408        -1.222960        -0.274019
 H         4.161962        -0.703431        -1.043052
 H         4.320328         1.382863         0.821515
 H         3.059668         1.888318        -0.368447
 H         1.197656         1.509280         2.554298
 H         3.420709        -0.565953         2.530492
 H         1.541230        -0.891191         2.336585
 H         2.511883        -2.229661         0.285137
