19
Iteration:  4068charge 0 multiplicity 1
 C        -0.108193        -0.315193         0.104810
 C         1.435959        -0.124138         0.005831
 O         2.010969         0.100331        -1.271815
 C         3.280019        -0.208826        -0.467945
 C         3.484268         1.065740         0.355107
 C         2.226099         0.850812         1.182868
 O         1.399291         1.846653         1.886572
 C         2.555789        -0.559764         1.957931
 C         2.470145        -1.185522         0.533357
 H        -0.642659        -0.089423         1.103944
 H        -0.635878         0.597958        -0.430252
 H        -0.282187        -1.232361        -0.378917
 H         3.931966        -0.567147        -1.289692
 H         4.389625         1.131695         1.037860
 H         3.424974         1.964701        -0.308281
 H         0.792618         2.202269         1.252960
 H         3.392125        -0.605110         2.748859
 H         1.617088        -0.744297         2.640434
 H         2.328496        -2.309842         0.197509
