19
Iteration:  4598charge 0 multiplicity 1
 C        -0.146541        -0.343342         0.066613
 C         1.359598        -0.151631         0.038150
 O         2.026869         0.045901        -1.227983
 C         3.231861        -0.226691        -0.461197
 C         3.460988         1.127425         0.382209
 C         2.184237         0.881012         1.189819
 O         1.434872         1.832892         1.798823
 C         2.544352        -0.466525         1.843834
 C         2.507334        -1.150646         0.561886
 H        -0.253741        -0.892757         1.103795
 H        -0.604955         0.602445         0.185235
 H        -0.686063        -0.824528        -0.701571
 H         3.970692        -0.738360        -1.049273
 H         4.332537         1.126013         1.077350
 H         3.244178         1.872950        -0.303486
 H         1.827288         2.121250         2.609086
 H         3.516381        -0.428379         2.270129
 H         1.833473        -0.967704         2.428899
 H         2.729336        -2.185689         0.254884
