19
Iteration:   629
 C         0.003415        -0.404088        -0.222288
 C         1.369288         0.041768        -0.013244
 O         2.043683         0.220308        -1.261585
 C         3.244783        -0.254956        -0.445672
 C         3.516728         0.935047         0.511338
 C         2.142320         0.835044         1.256929
 O         1.752053         1.867893         2.020634
 C         2.254973        -0.615006         1.901773
 C         2.301055        -1.027405         0.469736
 H        -0.378289        -0.908888         0.660935
 H        -0.737531         0.357588        -0.317372
 H        -0.162961        -1.020034        -1.064735
 H         4.090596        -0.701887        -1.092869
 H         4.291887         0.915113         1.272584
 H         3.672118         1.825514        -0.129986
 H         0.831576         1.787511         2.370597
 H         3.121926        -0.811055         2.523808
 H         1.409432        -1.101860         2.313389
 H         2.154003        -2.083751         0.290427
