19
Iteration:   950
 C        -0.088941        -0.282995        -0.120860
 C         1.385088        -0.108808        -0.060242
 O         2.093182         0.142238        -1.240757
 C         3.298613        -0.152417        -0.404826
 C         3.401971         0.977001         0.534888
 C         2.134597         0.803811         1.241790
 O         1.719446         2.020475         1.925965
 C         2.320379        -0.755945         1.900517
 C         2.326908        -1.115788         0.426706
 H        -0.569102        -0.580603         0.780402
 H        -0.701536         0.444887        -0.630078
 H        -0.160785        -1.100811        -0.805341
 H         4.156453        -0.434247        -1.141207
 H         4.362137         0.875437         1.081820
 H         3.257415         1.985780         0.112532
 H         1.191401         1.755069         2.747631
 H         3.219480        -0.793436         2.421015
 H         1.456730        -1.143506         2.467361
 H         2.455255        -2.198753         0.256891
