19
Iteration:  2572
 C        -0.105550        -0.114453         0.188097
 C         1.400057        -0.102512         0.092630
 O         2.127507         0.125464        -1.255565
 C         3.279852        -0.261337        -0.518383
 C         3.472839         1.025182         0.382467
 C         2.154714         0.721592         1.176141
 O         1.409541         1.797522         1.824492
 C         2.549133        -0.542574         1.832679
 C         2.419399        -1.135420         0.476310
 H        -0.347541         0.169978         1.222968
 H        -0.638959         0.652521        -0.429898
 H        -0.581706        -1.075549         0.014565
 H         4.133831        -0.467914        -1.143249
 H         4.323663         1.009199         1.064602
 H         3.333008         1.936485        -0.179759
 H         0.603005         1.235876         2.053450
 H         3.586907        -0.530584         2.284887
 H         1.827977        -0.845097         2.633575
 H         2.132591        -2.158318         0.281443
