19
Iteration:  1060charge 0 multiplicity 1
 C        -0.074391         0.058128         0.123604
 C         1.433919        -0.110139         0.046856
 O         2.126328         0.197332        -1.233240
 C         3.310504        -0.187938        -0.440999
 C         3.441898         0.955394         0.535617
 C         2.109556         0.689463         1.209095
 O         1.418679         1.787269         1.647119
 C         2.399960        -0.704047         1.899620
 C         2.486482        -1.217581         0.459856
 H        -0.327213        -0.015135         1.171963
 H        -0.037592         1.077341        -0.218057
 H        -0.562380        -0.655501        -0.478676
 H         4.155515        -0.403915        -1.198347
 H         4.323605         0.905301         1.201262
 H         3.417748         1.842874        -0.130339
 H         0.807079         1.543456         2.322795
 H         3.290812        -0.746872         2.447345
 H         1.546034        -1.038570         2.542643
 H         2.377751        -2.283043         0.175732
