19
Iteration:   978charge 0 multiplicity 1
 C        -0.225421        -0.404535        -0.288663
 C         1.310665        -0.125692        -0.030420
 O         2.094966         0.264334        -1.195111
 C         3.287983        -0.224544        -0.375899
 C         3.428581         0.971577         0.484712
 C         2.099979         0.790869         1.268221
 O         1.818452         1.940759         1.972626
 C         2.413183        -0.542710         1.909906
 C         2.336528        -1.148100         0.437950
 H        -0.800269        -0.888351         0.542199
 H        -0.910339         0.383696        -0.673370
 H        -0.153551        -1.097725        -1.214357
 H         4.039593        -0.571232        -1.048601
 H         4.216746         0.698157         1.209794
 H         3.652933         1.928300        -0.002175
 H         1.226370         1.931429         2.756536
 H         3.336953        -0.551298         2.626004
 H         1.555225        -0.904105         2.491765
 H         2.418643        -2.219877         0.474597
