19
Iteration:  4918charge 0 multiplicity 1
 C        -0.138281        -0.358669         0.137084
 C         1.387680        -0.097722         0.091689
 O         2.040776         0.088654        -1.227624
 C         3.245000        -0.246552        -0.509075
 C         3.440439         1.094798         0.258248
 C         2.179671         0.793033         1.122780
 O         1.402691         1.758496         1.918987
 C         2.554111        -0.462159         1.935315
 C         2.508304        -1.105816         0.531937
 H        -0.600494        -0.244616         1.081294
 H        -0.621990         0.431984        -0.491096
 H        -0.447998        -1.318557        -0.374595
 H         3.996277        -0.492924        -1.240777
 H         4.322401         1.379910         0.781900
 H         3.319330         1.925366        -0.476609
 H         1.970539         2.564335         1.886018
 H         3.555864        -0.382287         2.463254
 H         1.760778        -0.904267         2.577162
 H         2.526265        -2.143562         0.390938
