19
Iteration:  1218
 C        -0.057882        -0.011583         0.092031
 C         1.399118        -0.049040         0.036270
 O         2.168747         0.143379        -1.184947
 C         3.313129        -0.164953        -0.475822
 C         3.430843         1.054581         0.460698
 C         2.152327         0.690644         1.234899
 O         1.474385         1.761101         1.746845
 C         2.363526        -0.768315         1.938216
 C         2.482788        -1.145496         0.442802
 H        -0.526639        -0.058386         1.130917
 H        -0.464375         1.041840        -0.213467
 H        -0.620661        -0.825315        -0.531335
 H         4.007817        -0.662387        -1.095457
 H         4.244606         1.099762         1.238752
 H         3.342023         2.014285        -0.092247
 H         0.602912         1.771259         1.385676
 H         3.253408        -1.097593         2.633679
 H         1.378367        -1.123911         2.325004
 H         2.503269        -2.122230        -0.048860
