19
Iteration:  4876charge 0 multiplicity 1
 C        -0.161166        -0.272371         0.034772
 C         1.352987        -0.146373         0.166423
 O         2.000859         0.007850        -1.275690
 C         3.267877        -0.174714        -0.582240
 C         3.363958         1.052009         0.295700
 C         2.069862         0.780741         1.279949
 O         1.567899         1.881495         1.921779
 C         2.620940        -0.513701         1.940743
 C         2.590971        -1.086455         0.531716
 H        -0.572558        -0.340833         1.009539
 H        -0.625563         0.467007        -0.717328
 H        -0.456462        -1.223414        -0.560286
 H         4.121053        -0.574681        -1.041994
 H         4.321981         1.065530         0.848473
 H         3.166901         2.036181        -0.348837
 H         0.693765         2.145978         1.451651
 H         3.517443        -0.463791         2.531473
 H         1.919739        -1.040709         2.571332
 H         2.557841        -2.190493         0.391378
