19
Iteration:  3974charge 0 multiplicity 1
 C        -0.077161        -0.374933         0.071225
 C         1.375187        -0.117512         0.037322
 O         2.097645         0.086485        -1.197795
 C         3.253739        -0.250412        -0.478292
 C         3.366703         1.091769         0.290842
 C         2.112316         0.788842         1.179864
 O         1.523224         1.786246         1.860391
 C         2.472848        -0.415774         1.914194
 C         2.449071        -1.089686         0.573186
 H        -0.581470        -0.843251         0.880361
 H        -0.633115         0.520753        -0.038326
 H        -0.056556        -1.016944        -0.918429
 H         4.093799        -0.588711        -1.151526
 H         4.281108         1.329231         0.776944
 H         2.986532         1.844370        -0.450485
 H         2.232569         2.402180         2.226921
 H         3.425485        -0.548034         2.551723
 H         1.694683        -0.695497         2.623256
 H         2.193811        -2.178046         0.311015
