19
Iteration:  1414charge 0 multiplicity 1
 C        -0.041269        -0.001755        -0.039401
 C         1.428396        -0.119518         0.023751
 O         2.052138         0.103410        -1.263281
 C         3.332576        -0.171851        -0.493817
 C         3.339079         1.003871         0.449817
 C         2.077485         0.709719         1.251133
 O         1.440935         1.782020         1.846082
 C         2.437022        -0.651174         1.941508
 C         2.546856        -1.141348         0.470875
 H        -0.547216        -0.473219         0.797534
 H        -0.438984         0.983841        -0.188468
 H        -0.621465        -0.427371        -0.884686
 H         4.127297        -0.551269        -1.044995
 H         4.221458         0.832037         1.165964
 H         3.451173         1.996724         0.008621
 H         1.703851         1.791369         2.776144
 H         3.392536        -0.818685         2.463319
 H         1.614078        -1.062771         2.534203
 H         2.767442        -2.194376         0.265435
