19
Iteration:  2303charge 0 multiplicity 1
 C        -0.006160        -0.402977        -0.077399
 C         1.343991         0.001184         0.076960
 O         2.011608         0.364166        -1.187953
 C         3.165698        -0.251651        -0.452547
 C         3.515567         0.945993         0.460110
 C         2.205967         0.750932         1.263520
 O         1.688202         1.877416         1.849669
 C         2.356575        -0.654815         1.928090
 C         2.376456        -1.116416         0.440034
 H        -0.314005        -0.903643         0.802065
 H        -0.812844         0.363335        -0.250780
 H        -0.138928        -1.165567        -0.833507
 H         3.959180        -0.556474        -1.088472
 H         4.506306         1.028046         0.994529
 H         3.541028         1.820850        -0.201560
 H         0.746126         1.859430         1.899731
 H         3.212177        -0.646438         2.548431
 H         1.396598        -0.988033         2.285226
 H         2.223916        -2.150056         0.068871
