19
Iteration:  2146
 C        -0.108446        -0.378228        -0.031871
 C         1.413893        -0.070822         0.029010
 O         2.064263         0.297274        -1.198189
 C         3.314109        -0.111492        -0.464049
 C         3.447423         1.024541         0.462784
 C         2.161514         0.720714         1.289415
 O         1.715931         1.887684         1.886457
 C         2.345972        -0.671006         1.845982
 C         2.312394        -1.155263         0.386565
 H        -0.734127        -0.293531         0.953576
 H        -0.747179         0.285674        -0.630626
 H        -0.231782        -1.434146        -0.191414
 H         4.289459        -0.476953        -0.854736
 H         4.369436         1.067429         1.123368
 H         3.558866         2.075654         0.020954
 H         0.806914         1.610629         1.929142
 H         2.977674        -1.062315         2.640850
 H         1.369212        -1.038313         2.129935
 H         2.233975        -2.200968         0.123034
