19
Iteration:  3100charge 0 multiplicity 1
 C        -0.052890        -0.229513         0.087863
 C         1.387942        -0.216923         0.056034
 O         1.985830         0.102546        -1.270772
 C         3.297752        -0.237476        -0.450856
 C         3.351265         1.165854         0.297285
 C         2.196693         0.786510         1.220943
 O         1.459307         1.825883         1.821279
 C         2.504331        -0.535392         1.948777
 C         2.476267        -1.212065         0.527070
 H        -0.254346        -0.705392         1.144202
 H        -0.323257         0.805327         0.017285
 H        -0.493288        -0.842835        -0.669335
 H         4.043087        -0.792662        -1.040594
 H         4.329119         1.224233         0.782720
 H         3.037786         2.036256        -0.272917
 H         2.083299         2.586600         1.877304
 H         3.321262        -0.678477         2.621714
 H         1.579069        -0.708424         2.606175
 H         2.617211        -2.256473         0.347126
