19
Iteration:  2200
 C        -0.184703        -0.034206        -0.117148
 C         1.357450        -0.105664         0.008901
 O         2.117285         0.078318        -1.231600
 C         3.254753        -0.193372        -0.492917
 C         3.540899         1.135385         0.463089
 C         2.090995         0.743479         1.226283
 O         1.474026         1.718908         1.954094
 C         2.565492        -0.612590         1.890981
 C         2.430778        -1.187220         0.503751
 H        -0.767777         0.012646         0.860754
 H        -0.565459         0.827271        -0.597286
 H        -0.744703        -0.679095        -0.821846
 H         4.046010        -0.601255        -1.200138
 H         4.321155         1.149096         1.261465
 H         3.391473         1.956226        -0.311756
 H         1.289589         1.321527         2.819495
 H         3.581549        -0.667758         2.335996
 H         1.940865        -1.048482         2.674291
 H         2.386461        -2.198335         0.095652
