19
Iteration:  1458charge 0 multiplicity 1
 C        -0.073468        -0.300438        -0.177546
 C         1.339864         0.005940        -0.004163
 O         2.086895         0.198949        -1.258929
 C         3.203219        -0.194444        -0.414003
 C         3.525855         0.944774         0.455233
 C         2.164493         0.794002         1.222336
 O         1.497078         1.786054         2.001065
 C         2.486041        -0.594177         1.934372
 C         2.308796        -1.118496         0.455752
 H        -0.349209        -0.948305         0.683401
 H        -0.830673         0.493000        -0.361461
 H        -0.154556        -0.942972        -1.140798
 H         4.052500        -0.443157        -0.975074
 H         4.491056         0.874489         1.085593
 H         3.616135         1.865416        -0.141950
 H         2.063479         2.339766         2.547257
 H         3.454509        -0.563011         2.494962
 H         1.661861        -0.918902         2.574962
 H         2.192438        -2.178820         0.168548
