19
Iteration:  2882charge 0 multiplicity 1
 C        -0.045277        -0.113103         0.253425
 C         1.425268        -0.103337         0.021852
 O         2.011154         0.150070        -1.200765
 C         3.347667        -0.229158        -0.519940
 C         3.410124         1.038516         0.310317
 C         2.196963         0.716335         1.175313
 O         1.330292         1.749428         1.616933
 C         2.520369        -0.573510         1.935680
 C         2.504849        -1.153231         0.556549
 H         0.066764        -0.522904         1.302807
 H        -0.383807         0.906425         0.305615
 H        -0.664595        -0.765636        -0.390569
 H         4.176084        -0.545779        -1.112280
 H         4.343161         1.178306         0.960505
 H         2.971644         1.927191        -0.208419
 H         1.342701         2.163503         2.539373
 H         3.338429        -0.824304         2.635305
 H         1.522348        -0.880469         2.458281
 H         2.506572        -2.241991         0.506389
