19
Iteration:  3508charge 0 multiplicity 1
 C        -0.131428        -0.387007         0.034695
 C         1.323777        -0.156156         0.094538
 O         2.013824         0.112685        -1.226047
 C         3.251396        -0.194003        -0.556011
 C         3.507337         1.052189         0.448718
 C         2.167681         0.802114         1.179090
 O         1.508995         1.883781         1.795388
 C         2.480874        -0.489511         1.904233
 C         2.413077        -1.089587         0.528176
 H        -0.450184        -0.835983         0.966417
 H        -0.731251         0.477604        -0.317174
 H        -0.421977        -1.251926        -0.636550
 H         4.144493        -0.493993        -1.102116
 H         4.345630         0.846549         1.131429
 H         3.577655         2.072575        -0.005412
 H         2.068787         2.159562         2.595315
 H         3.588033        -0.585507         2.147251
 H         1.922127        -0.856819         2.731688
 H         2.434832        -2.146976         0.243487
