19
Iteration:  4115charge 0 multiplicity 1
 C        -0.075053        -0.259136        -0.003532
 C         1.409933        -0.172294         0.052813
 O         2.001978         0.078472        -1.248910
 C         3.268458        -0.198967        -0.448377
 C         3.369798         1.137150         0.305730
 C         2.117179         0.772799         1.233130
 O         1.460955         1.848932         1.851895
 C         2.513848        -0.553977         1.953382
 C         2.522932        -1.155440         0.566257
 H        -0.295759        -0.431648         1.047951
 H        -0.634348         0.636807        -0.151146
 H        -0.456665        -1.217423        -0.519686
 H         4.126314        -0.597398        -1.062223
 H         4.326669         1.263549         0.825600
 H         3.258386         2.012328        -0.458106
 H         1.956643         2.714889         1.713537
 H         3.399743        -0.885465         2.496600
 H         1.734171        -1.077902         2.560376
 H         2.650623        -2.318838         0.457975
