19
Iteration:   562
 C        -0.041436         0.027177        -0.105452
 C         1.390941        -0.109696         0.134744
 O         2.108617         0.215556        -1.179651
 C         3.306802        -0.248613        -0.493381
 C         3.513088         1.003773         0.472024
 C         2.120156         0.708746         1.274177
 O         1.409147         1.771737         1.799849
 C         2.496007        -0.674677         1.897147
 C         2.383749        -1.174467         0.469243
 H        -0.564999        -0.028020         0.827812
 H        -0.138714         0.981179        -0.552664
 H        -0.511510        -0.710411        -0.706082
 H         4.093077        -0.528558        -1.185030
 H         4.370993         0.991785         1.118987
 H         3.549704         1.917059        -0.123495
 H         0.719208         1.325985         2.365786
 H         3.392230        -1.001300         2.371574
 H         1.666033        -1.097461         2.456259
 H         2.116390        -2.250499         0.194418
