19
Iteration:  4479
 C        -0.100755        -0.396040         0.030186
 C         1.395493        -0.162100         0.146396
 O         1.963679         0.133979        -1.129894
 C         3.295243        -0.149915        -0.538918
 C         3.421816         1.099686         0.317531
 C         2.096911         0.809542         1.215115
 O         1.605848         1.857257         1.817268
 C         2.513861        -0.504307         1.872344
 C         2.479735        -1.165758         0.521781
 H        -0.275653        -0.395584         1.202970
 H        -0.723547         0.206595        -0.565920
 H        -0.349375        -1.404483        -0.171282
 H         4.091126        -0.486917        -1.183073
 H         4.359321         1.144835         1.068490
 H         3.218197         1.985714        -0.248208
 H         0.819041         2.179440         1.262383
 H         3.346605        -0.553351         2.618922
 H         1.585876        -0.898803         2.309171
 H         2.597583        -2.226743         0.409545
