19
Iteration:  1626charge 0 multiplicity 1
 C        -0.150254        -0.333526        -0.098507
 C         1.383228        -0.020922         0.007625
 O         2.058197         0.217301        -1.233190
 C         3.287159        -0.178098        -0.456211
 C         3.581983         0.927219         0.545867
 C         2.127037         0.765350         1.149471
 O         1.520034         1.738717         1.970230
 C         2.328718        -0.518736         1.908984
 C         2.462813        -1.079887         0.426508
 H        -0.410973        -0.983986         0.796320
 H        -0.789647         0.639067        -0.215442
 H        -0.236408        -0.836739        -1.046345
 H         4.052079        -0.549468        -1.221667
 H         4.378961         0.878538         1.335413
 H         3.628986         1.965080         0.044263
 H         2.244112         2.353367         2.170822
 H         3.126635        -0.739043         2.583569
 H         1.330127        -0.865164         2.238059
 H         2.179733        -2.112882         0.191244
