19
Iteration:  3495charge 0 multiplicity 1
 C        -0.164322        -0.468306         0.013310
 C         1.365349        -0.125572         0.029784
 O         1.999752         0.184242        -1.269924
 C         3.206606        -0.130665        -0.527338
 C         3.514978         0.981024         0.395739
 C         2.200242         0.806103         1.233853
 O         1.486230         1.909389         1.823711
 C         2.556905        -0.511230         2.013156
 C         2.436692        -1.172600         0.526955
 H        -0.573146        -0.611004         0.941754
 H        -0.596605         0.453572        -0.284807
 H        -0.331924        -1.282516        -0.764387
 H         3.838906        -0.526041        -1.246199
 H         4.475988         0.869175         0.896742
 H         3.607294         1.924671        -0.098726
 H         2.117585         2.434927         2.301017
 H         3.376390        -0.483775         2.789309
 H         1.616795        -0.764481         2.411672
 H         2.295471        -2.273715         0.434989
