19
Iteration:   840charge 0 multiplicity 1
 C        -0.123454        -0.226545        -0.069297
 C         1.405682        -0.081295         0.050251
 O         2.032827         0.168335        -1.263124
 C         3.293819        -0.192909        -0.457509
 C         3.559509         0.982921         0.441984
 C         2.136055         0.779848         1.192816
 O         1.585519         1.815140         1.991694
 C         2.322549        -0.548890         1.865406
 C         2.461116        -1.129422         0.444970
 H        -0.503981        -0.622029         0.852737
 H        -0.566220         0.769599        -0.284586
 H        -0.323282        -0.852826        -0.943470
 H         4.176113        -0.687607        -1.113887
 H         4.439108         0.778015         1.114659
 H         3.569952         1.972385        -0.040326
 H         0.752068         1.396938         2.225976
 H         3.088250        -0.616729         2.608492
 H         1.400296        -0.865186         2.370167
 H         2.422356        -2.225473         0.401072
