19
Iteration:  4487charge 0 multiplicity 1
 C        -0.045500        -0.399213         0.062959
 C         1.394362        -0.196401         0.088779
 O         1.956069         0.085383        -1.117223
 C         3.281122        -0.123375        -0.496722
 C         3.483991         1.145584         0.307287
 C         2.137905         0.787034         1.171734
 O         1.576266         1.913002         1.847468
 C         2.462753        -0.526600         1.902928
 C         2.459269        -1.174463         0.507977
 H        -0.341917        -0.257019         1.154732
 H        -0.739693         0.289182        -0.428960
 H        -0.187821        -1.455801        -0.280193
 H         3.934073        -0.517354        -1.203441
 H         4.297295         1.341048         1.003094
 H         3.350505         2.101624        -0.220876
 H         0.700474         2.142084         1.388585
 H         3.438444        -0.666450         2.271439
 H         1.588101        -0.974990         2.337117
 H         2.366907        -2.344152         0.233267
