19
Iteration:  4002
 C        -0.093740        -0.365637         0.004577
 C         1.355646        -0.202333        -0.033462
 O         2.021084        -0.015165        -1.229715
 C         3.242766        -0.169009        -0.468779
 C         3.389935         1.095488         0.345561
 C         2.126165         0.837417         1.222543
 O         1.532975         1.909002         1.946384
 C         2.499212        -0.518924         1.914544
 C         2.532880        -1.080492         0.560100
 H        -0.483192        -0.790729         1.013477
 H        -0.604582         0.683363        -0.228723
 H        -0.486049        -1.055423        -0.687705
 H         4.064738        -0.507851        -1.120955
 H         4.400762         1.041043         0.894172
 H         3.433299         2.000110        -0.261799
 H         1.823202         2.779325         1.530311
 H         3.273239        -0.840507         2.604323
 H         1.639508        -0.860977         2.560067
 H         2.442913        -2.130935         0.165400
