19
Iteration:  1995
 C        -0.085943        -0.296955        -0.066841
 C         1.429445        -0.053649        -0.001382
 O         2.114288         0.337368        -1.179735
 C         3.280089        -0.229353        -0.471618
 C         3.440249         0.955535         0.497371
 C         2.124057         0.831333         1.248751
 O         1.483051         1.830958         1.836611
 C         2.417685        -0.764593         1.887162
 C         2.363822        -1.137946         0.444015
 H        -0.237237        -0.575041         0.961662
 H        -0.498339         0.752041        -0.244703
 H        -0.508270        -1.016754        -0.706134
 H         4.087036        -0.345975        -1.211673
 H         4.280137         0.799440         1.202584
 H         3.400792         1.898307        -0.088388
 H         2.024251         2.062853         2.579496
 H         3.391677        -0.882565         2.389492
 H         1.530174        -1.090300         2.462280
 H         2.341117        -2.160524         0.163951
