19
Iteration:    65charge 0 multiplicity 1
 C         0.050594        -0.132846        -0.029627
 C         1.459874        -0.002991         0.027631
 O         2.075376         0.159532        -1.279673
 C         3.311346        -0.298786        -0.351858
 C         3.495766         1.011618         0.415047
 C         2.187827         0.746811         1.161600
 O         1.541785         1.784209         1.884517
 C         2.186511        -0.592948         1.949689
 C         2.369210        -1.152508         0.499197
 H        -0.481266        -0.404975         0.837371
 H        -0.361047         0.688123        -0.571913
 H         0.013916        -0.892569        -0.778696
 H         4.110106        -0.655385        -0.973944
 H         4.396519         1.359969         0.962599
 H         3.457356         1.870613        -0.276722
 H         0.718298         1.423059         2.342810
 H         3.016924        -0.706445         2.643383
 H         1.303036        -0.811028         2.378746
 H         2.229892        -2.129686         0.171475
