19
Iteration:  1231
 C        -0.057012         0.029035         0.111318
 C         1.475512        -0.160108         0.077092
 O         2.055257         0.197729        -1.211074
 C         3.373998        -0.197587        -0.469321
 C         3.445049         0.960996         0.482899
 C         2.129484         0.677561         1.194363
 O         1.438293         1.736067         1.815397
 C         2.328034        -0.620594         1.854116
 C         2.537155        -1.199684         0.440825
 H        -0.399944        -0.186309         1.136180
 H        -0.219109         1.089034        -0.278282
 H        -0.550278        -0.622196        -0.665090
 H         4.251973        -0.151718        -1.140912
 H         4.360778         1.051394         1.092543
 H         3.384861         1.871094        -0.121106
 H         0.651822         1.938807         1.215348
 H         3.043419        -0.694137         2.770756
 H         1.361611        -1.059569         2.152099
 H         2.441947        -2.279558         0.348118
