19
Iteration:  4722charge 0 multiplicity 1
 C        -0.182668        -0.288456        -0.003984
 C         1.346912        -0.074724         0.101525
 O         2.007894         0.005228        -1.243957
 C         3.303519        -0.194010        -0.495197
 C         3.436410         1.049139         0.338177
 C         2.221258         0.837039         1.121848
 O         1.508867         1.714981         1.948323
 C         2.516612        -0.450087         1.956406
 C         2.543935        -1.076479         0.519059
 H        -0.580681        -0.326304         1.005977
 H        -0.787755         0.583095        -0.342832
 H        -0.407177        -1.333381        -0.300236
 H         4.177345        -0.497564        -1.158412
 H         4.302557         1.241812         1.040632
 H         3.328098         1.995934        -0.311998
 H         0.878501         2.194947         1.417067
 H         3.441734        -0.443829         2.491979
 H         1.650325        -0.674160         2.496964
 H         2.506748        -2.120735         0.411115
