19
Iteration:  2073charge 0 multiplicity 1
 C        -0.096546        -0.011840        -0.035171
 C         1.396330        -0.092597         0.031407
 O         2.158692         0.107675        -1.182422
 C         3.329654        -0.175781        -0.410259
 C         3.369522         1.105840         0.368290
 C         2.089861         0.693598         1.217267
 O         1.522214         1.749299         1.871219
 C         2.502576        -0.672669         1.867346
 C         2.400429        -1.181895         0.452134
 H        -0.539065        -0.717933         0.654425
 H        -0.540175         1.045550         0.290172
 H        -0.496510        -0.430885        -0.944307
 H         4.188500        -0.429294        -1.037048
 H         4.309471         1.214812         0.942357
 H         3.210146         2.058187        -0.180767
 H         0.888905         1.416436         2.525336
 H         3.356638        -0.846683         2.544767
 H         1.557191        -0.958097         2.441318
 H         2.282583        -2.261575         0.319070
