19
Iteration:  3669charge 0 multiplicity 1
 C        -0.197320        -0.436633         0.085985
 C         1.368835        -0.123419        -0.041163
 O         2.061319         0.020874        -1.243418
 C         3.279243        -0.172175        -0.440732
 C         3.370677         1.154660         0.384933
 C         2.147174         0.810663         1.190234
 O         1.712460         1.933400         1.881946
 C         2.424275        -0.521589         1.885614
 C         2.434942        -1.098388         0.487979
 H        -0.374005        -0.753945         1.118558
 H        -0.790781         0.419855        -0.230484
 H        -0.362191        -1.424212        -0.563431
 H         4.156901        -0.383505        -1.089247
 H         4.234729         1.311957         1.040843
 H         3.129854         1.882861        -0.421745
 H         1.356599         1.709025         2.750946
 H         3.426667        -0.619975         2.381670
 H         1.650871        -0.833640         2.555823
 H         2.269071        -2.148261         0.073459
