19
Iteration:  1092charge 0 multiplicity 1
 C        -0.065433        -0.130515        -0.066161
 C         1.401483        -0.050880         0.064815
 O         2.085047         0.189980        -1.211020
 C         3.287626        -0.234998        -0.449168
 C         3.540508         0.959302         0.446246
 C         2.195939         0.785110         1.215466
 O         1.438284         1.810736         1.837072
 C         2.347610        -0.646789         1.897079
 C         2.415181        -1.173383         0.513722
 H        -0.662062        -0.415940         0.821834
 H        -0.384651         0.865382        -0.420025
 H        -0.322073        -0.743174        -0.899553
 H         4.140984        -0.495960        -1.204457
 H         4.485337         0.913681         1.022992
 H         3.680726         1.798825        -0.265904
 H         1.328079         1.574875         2.799653
 H         3.179383        -0.834664         2.500006
 H         1.388960        -0.762817         2.443843
 H         2.322193        -2.222823         0.192045
