19
Iteration:  1284charge 0 multiplicity 1
 C        -0.115941        -0.266378        -0.181629
 C         1.399606        -0.034571         0.025812
 O         2.114590         0.179080        -1.230994
 C         3.253955        -0.314978        -0.393697
 C         3.424692         1.111706         0.434961
 C         2.146501         0.765960         1.232466
 O         1.541610         1.827172         2.005290
 C         2.436889        -0.646870         1.909776
 C         2.336506        -1.167743         0.448666
 H        -0.562687        -0.735790         0.752054
 H        -0.759810         0.676171        -0.395347
 H        -0.077196        -1.074280        -1.009585
 H         4.012946        -0.698187        -1.018317
 H         4.226059         1.455996         1.126779
 H         3.374483         1.960730        -0.264371
 H         2.268809         2.500690         2.159579
 H         3.495760        -0.759129         2.368786
 H         1.631008        -0.841125         2.637174
 H         2.306697        -2.171991         0.016071
