19
Iteration:   248charge 0 multiplicity 1
 C        -0.081345        -0.150754        -0.193391
 C         1.371343         0.054144        -0.014081
 O         2.102270         0.146420        -1.263127
 C         3.223659        -0.197220        -0.431424
 C         3.433110         0.925865         0.535643
 C         2.093809         0.766758         1.266750
 O         1.554774         1.830644         1.954883
 C         2.528515        -0.619252         1.907969
 C         2.382698        -1.186631         0.497333
 H        -0.407786        -0.436946         0.842189
 H        -0.691697         0.791182        -0.489209
 H        -0.194103        -0.837668        -1.093265
 H         3.955631        -0.770635        -0.957108
 H         4.386184         0.715544         1.101494
 H         3.587637         1.903906         0.039330
 H         0.606192         1.829796         1.772728
 H         3.595775        -0.787603         2.351924
 H         1.984269        -1.197399         2.732028
 H         2.251433        -2.170956         0.281335
