19
Iteration:  4257
 C        -0.100984        -0.352054         0.025768
 C         1.396915        -0.134282         0.103422
 O         1.928466         0.068108        -1.249430
 C         3.315644        -0.219919        -0.466001
 C         3.422517         1.096396         0.319825
 C         2.203127         0.822844         1.188857
 O         1.497894         1.786324         1.912623
 C         2.593571        -0.448013         1.943647
 C         2.413284        -1.124724         0.544350
 H        -0.625985        -0.239866         0.931999
 H        -0.296354         0.571066        -0.439673
 H        -0.383793        -1.295762        -0.544400
 H         4.057146        -0.618381        -1.191231
 H         4.342412         1.414535         0.837597
 H         3.270242         2.040162        -0.341249
 H         1.106859         2.366273         1.163025
 H         3.370274        -0.632766         2.628796
 H         1.843720        -0.873733         2.592410
 H         2.567847        -2.309813         0.312382
