19
Iteration:  4648charge 0 multiplicity 1
 C        -0.123924        -0.342639         0.113019
 C         1.391816        -0.209582        -0.007576
 O         1.938757         0.139563        -1.196157
 C         3.325865        -0.164390        -0.451246
 C         3.414102         1.071279         0.429018
 C         2.132788         0.797945         1.196368
 O         1.439330         1.901901         1.775094
 C         2.587795        -0.553585         1.945001
 C         2.526875        -1.177724         0.489605
 H        -0.482003        -0.451462         1.093956
 H        -0.644456         0.506992        -0.431131
 H        -0.435123        -1.266736        -0.483393
 H         4.063976        -0.458735        -1.187126
 H         4.351999         0.912129         0.956831
 H         3.322898         1.938499        -0.307775
 H         2.056991         2.653924         1.764206
 H         3.484816        -0.517873         2.632152
 H         1.618978        -0.969369         2.384384
 H         2.546576        -2.285510         0.217696
