19
Iteration:  2156charge 0 multiplicity 1
 C        -0.089772        -0.318234        -0.032855
 C         1.360757        -0.037066         0.049803
 O         2.121899         0.245043        -1.165721
 C         3.274694        -0.120527        -0.487548
 C         3.432483         1.046709         0.427420
 C         2.196567         0.742276         1.233609
 O         1.681691         1.866693         1.922855
 C         2.256689        -0.726669         1.880979
 C         2.434084        -1.163265         0.397187
 H        -0.546958        -0.123822         0.990360
 H        -0.585803         0.206314        -0.799706
 H        -0.247242        -1.338258        -0.371300
 H         4.077934        -0.401125        -1.219895
 H         4.377412         0.946208         0.987832
 H         3.199055         1.964659        -0.161512
 H         0.817463         1.705973         2.334888
 H         3.083676        -0.904804         2.594638
 H         1.300689        -0.942168         2.332735
 H         2.299325        -2.189469         0.049679
