19
Iteration:   239
 C        -0.088373        -0.082152        -0.191069
 C         1.381596        -0.013803         0.058254
 O         2.066755         0.156771        -1.249386
 C         3.231221        -0.220945        -0.459313
 C         3.438565         0.893930         0.536211
 C         2.155643         0.711497         1.247519
 O         1.515814         1.787383         1.894702
 C         2.557710        -0.610228         1.954403
 C         2.414695        -1.075554         0.502496
 H        -0.738018        -0.463797         0.631732
 H        -0.466086         0.907863        -0.539857
 H        -0.272772        -0.859922        -0.960750
 H         4.094196        -0.491573        -1.096822
 H         4.315308         0.517332         1.139239
 H         3.545981         1.920701         0.104143
 H         0.565142         1.685555         1.825486
 H         3.622511        -0.579820         2.408830
 H         1.719181        -1.120479         2.491004
 H         2.210724        -2.071453         0.365883
