19
Iteration:    18
 C        -0.080719        -0.045084        -0.056668
 C         1.348068        -0.049250        -0.017597
 O         2.040440         0.185275        -1.264738
 C         3.401279        -0.218458        -0.341527
 C         3.382572         0.906043         0.691645
 C         2.004047         0.651669         1.084093
 O         1.521348         1.818474         1.664172
 C         2.470749        -0.577187         1.906816
 C         2.445431        -1.187597         0.523357
 H        -0.317029        -0.184890         1.010846
 H        -0.434651         0.939103        -0.425155
 H        -0.457819        -0.812669        -0.746553
 H         4.213850        -0.578222        -1.012059
 H         4.123750         0.850015         1.579536
 H         3.802167         1.877498         0.324743
 H         1.925096         1.706690         2.499851
 H         3.417846        -0.437104         2.483051
 H         1.852501        -1.176008         2.639676
 H         2.225858        -2.224924         0.230371
