19
Iteration:  4748charge 0 multiplicity 1
 C        -0.059627        -0.269603         0.015253
 C         1.380430        -0.273135         0.105548
 O         2.040463         0.085310        -1.226636
 C         3.234894        -0.185462        -0.474036
 C         3.346287         1.059688         0.356726
 C         2.140942         0.801316         1.170798
 O         1.451956         1.919536         1.913828
 C         2.631377        -0.523683         1.916543
 C         2.470713        -1.206505         0.473342
 H        -0.430665        -0.481042         1.037379
 H        -0.395832         0.728443        -0.083057
 H        -0.494180        -1.036446        -0.582664
 H         4.072082        -0.428242        -1.021414
 H         4.115069         1.284722         1.005618
 H         3.264450         1.979193        -0.163367
 H         1.396563         2.560857         1.217229
 H         3.633443        -0.412800         2.361313
 H         1.846725        -0.974126         2.602257
 H         2.376530        -2.354777         0.335707
