19
Iteration:  1041charge 0 multiplicity 1
 C        -0.139150        -0.007456         0.079758
 C         1.333771        -0.181462        -0.100108
 O         2.157256         0.166422        -1.215561
 C         3.348762        -0.258577        -0.390487
 C         3.459046         1.082916         0.580805
 C         2.023473         0.674752         1.158041
 O         1.552250         1.834528         1.772087
 C         2.484494        -0.624925         1.865615
 C         2.394293        -1.227692         0.441961
 H        -0.312535        -0.316595         1.158643
 H        -0.435799         1.001043        -0.265867
 H        -0.857765        -0.626502        -0.529734
 H         4.194976        -0.588066        -0.897072
 H         4.229948         0.955197         1.327892
 H         3.659389         2.024561         0.050789
 H         0.704350         1.705001         2.217847
 H         3.495445        -0.500269         2.333839
 H         1.655667        -1.101814         2.409935
 H         2.468379        -2.279587         0.125913
