19
Iteration:  1773
 C        -0.085785        -0.143148        -0.154234
 C         1.391610        -0.050251         0.085845
 O         2.022748         0.194101        -1.139999
 C         3.291842        -0.188958        -0.533693
 C         3.457814         1.048369         0.471097
 C         2.098486         0.691793         1.279990
 O         1.524665         1.768483         1.892242
 C         2.388797        -0.668752         1.904920
 C         2.509083        -1.160611         0.436207
 H        -0.709151        -0.352331         0.725758
 H        -0.374077         0.793940        -0.566988
 H        -0.228390        -0.979819        -0.918606
 H         4.144945        -0.406885        -1.162991
 H         4.293106         0.967000         1.215958
 H         3.455516         2.000805        -0.057765
 H         2.153535         2.304776         2.367937
 H         3.159854        -0.912033         2.713452
 H         1.508565        -1.216765         2.234536
 H         2.217536        -2.161415         0.007429
