19
Iteration:  2076
 C        -0.084938        -0.001031        -0.030665
 C         1.375491        -0.090564         0.039152
 O         2.141483         0.116864        -1.169470
 C         3.325934        -0.164800        -0.387951
 C         3.392457         1.123638         0.361861
 C         2.118777         0.696939         1.223851
 O         1.529796         1.734394         1.860217
 C         2.476321        -0.676951         1.861583
 C         2.388198        -1.192861         0.450394
 H        -0.478807        -0.718553         0.644017
 H        -0.603383         0.853008         0.209013
 H        -0.425095        -0.520195        -0.937421
 H         4.156189        -0.433384        -1.042652
 H         4.348249         1.168433         0.827135
 H         3.261392         2.026002        -0.174120
 H         0.807584         1.527355         2.456178
 H         3.308239        -0.792068         2.566571
 H         1.570566        -0.991142         2.435030
 H         2.420623        -2.292273         0.216364
