19
Iteration:   851charge 0 multiplicity 1
 C        -0.092873        -0.128868        -0.047464
 C         1.381265        -0.196719        -0.002922
 O         2.056632         0.225690        -1.203530
 C         3.307356        -0.216916        -0.504497
 C         3.469666         1.061764         0.423878
 C         2.152214         0.714576         1.229239
 O         1.581551         1.739472         1.886133
 C         2.381735        -0.565165         1.962512
 C         2.449003        -1.148469         0.522680
 H        -0.699045        -0.458540         0.766117
 H        -0.319841         0.936822        -0.232187
 H        -0.489486        -0.728760        -0.871926
 H         4.091265        -0.609490        -1.330238
 H         4.294342         1.006481         1.194336
 H         3.610685         2.025522        -0.091847
 H         0.591752         1.812485         1.957755
 H         3.198849        -0.737488         2.613339
 H         1.421179        -0.939446         2.318784
 H         2.522416        -2.213060         0.228293
