19
Iteration:  1286
 C        -0.085057        -0.277748        -0.195143
 C         1.377917        -0.060203         0.017188
 O         2.111497         0.186389        -1.222586
 C         3.242420        -0.302556        -0.404960
 C         3.425729         1.117257         0.431273
 C         2.141683         0.774505         1.237106
 O         1.554705         1.833711         2.008179
 C         2.428304        -0.651998         1.914267
 C         2.330353        -1.156873         0.458702
 H        -0.560862        -0.704250         0.729055
 H        -0.735702         0.665162        -0.361348
 H        -0.097606        -1.075249        -0.988206
 H         4.094706        -0.678549        -1.042952
 H         4.207703         1.423951         1.127228
 H         3.387607         1.907919        -0.322300
 H         2.312374         2.460643         2.196023
 H         3.491505        -0.779006         2.359090
 H         1.594690        -0.875200         2.615468
 H         2.311459        -2.195646         0.095023
