19
Iteration:   781
 C        -0.113572        -0.284421        -0.211346
 C         1.336934        -0.099181         0.072608
 O         2.042098         0.251939        -1.086692
 C         3.309785        -0.189695        -0.506762
 C         3.449667         1.027615         0.470959
 C         2.134852         0.717631         1.227688
 O         1.628022         1.876155         1.897876
 C         2.325440        -0.658528         1.911484
 C         2.457620        -1.167648         0.425582
 H        -0.618830        -0.581591         0.719575
 H        -0.569814         0.639116        -0.481781
 H        -0.308060        -1.132321        -0.850515
 H         4.047235        -0.655836        -1.172082
 H         4.204657         0.834952         1.220692
 H         3.592970         2.028397         0.046444
 H         2.402113         2.509962         2.062430
 H         3.067516        -0.917282         2.700644
 H         1.316575        -0.900179         2.196242
 H         2.340088        -2.238450         0.372118
