19
Iteration:   637charge 0 multiplicity 1
 C        -0.037314        -0.424029        -0.209741
 C         1.381483         0.095428        -0.007172
 O         2.072799         0.255567        -1.219591
 C         3.245064        -0.262291        -0.488027
 C         3.466056         0.933968         0.514345
 C         2.136468         0.757692         1.246847
 O         1.747541         1.909251         1.974645
 C         2.325185        -0.625607         1.940664
 C         2.286136        -1.024826         0.495683
 H        -0.412371        -1.136848         0.537570
 H        -0.648721         0.448221        -0.500461
 H        -0.027429        -0.990049        -1.192916
 H         4.045127        -0.727414        -0.944806
 H         4.313893         0.836756         1.165708
 H         3.579140         1.814937        -0.117736
 H         0.956825         1.518586         2.381421
 H         3.163044        -0.926284         2.556961
 H         1.374891        -1.025371         2.425855
 H         1.909146        -2.054669         0.173090
