19
Iteration:  1465charge 0 multiplicity 1
 C        -0.083678        -0.327075        -0.150512
 C         1.381359         0.020705         0.003050
 O         2.079173         0.197546        -1.270528
 C         3.201574        -0.165168        -0.461673
 C         3.513478         0.911948         0.516885
 C         2.114919         0.792487         1.256055
 O         1.504520         1.813747         2.005041
 C         2.461280        -0.595551         1.908520
 C         2.406077        -1.112935         0.431019
 H        -0.569129        -0.917306         0.625384
 H        -0.819857         0.479354        -0.400182
 H        -0.217955        -0.991013        -1.051192
 H         4.127179        -0.599989        -1.056958
 H         4.458631         0.643494         1.003273
 H         3.585635         1.815398        -0.097978
 H         2.199848         2.345737         2.347740
 H         3.334656        -0.402214         2.526809
 H         1.612523        -0.919970         2.593385
 H         2.011323        -2.141354         0.192444
