19
Iteration:  2202
 C        -0.181691        -0.032219        -0.114186
 C         1.346657        -0.099799         0.020985
 O         2.100927         0.083624        -1.241925
 C         3.276135        -0.201819        -0.486477
 C         3.553071         1.153220         0.455938
 C         2.100661         0.738603         1.217198
 O         1.462151         1.716552         1.949693
 C         2.574708        -0.622922         1.907715
 C         2.431129        -1.189876         0.495194
 H        -0.737848        -0.015602         0.841807
 H        -0.589999         0.878892        -0.623269
 H        -0.709567        -0.605034        -0.845048
 H         4.023388        -0.680575        -1.144132
 H         4.317435         1.204159         1.288141
 H         3.348732         1.943832        -0.324858
 H         1.274568         1.303165         2.843403
 H         3.573238        -0.664520         2.332391
 H         1.941147        -1.101841         2.648099
 H         2.349891        -2.230000         0.173843
