19
Iteration:  1799
 C        -0.072139        -0.355721        -0.017031
 C         1.382459        -0.100279        -0.051263
 O         2.095993         0.401501        -1.191805
 C         3.197659        -0.146039        -0.448368
 C         3.551966         1.021825         0.537899
 C         2.194659         0.723453         1.291845
 O         1.555473         1.806157         1.814382
 C         2.282773        -0.711345         1.868902
 C         2.390952        -1.202631         0.436537
 H        -0.371512        -0.675518         1.008594
 H        -0.648437         0.629614        -0.268214
 H        -0.378724        -1.101232        -0.740653
 H         4.065563        -0.422295        -1.065118
 H         4.467008         0.978580         1.180160
 H         3.616524         1.922297        -0.141574
 H         2.052758         2.605536         2.009148
 H         3.114881        -0.933159         2.625661
 H         1.374126        -1.120464         2.425769
 H         2.149454        -2.171190         0.053272
