19
Iteration:  2233
 C         0.007109        -0.006186        -0.033103
 C         1.414181        -0.102852         0.066842
 O         2.117563         0.137094        -1.184617
 C         3.199066        -0.157534        -0.525228
 C         3.415228         1.036930         0.406902
 C         2.121144         0.711150         1.207663
 O         1.443810         1.730135         1.880575
 C         2.471502        -0.603300         1.945617
 C         2.466501        -1.241810         0.439768
 H        -0.491650        -0.512576         0.876584
 H        -0.183810         1.069701         0.026862
 H        -0.433122        -0.412443        -0.982235
 H         3.961400        -0.598594        -1.217486
 H         4.309706         1.331776         1.016396
 H         3.272653         1.924336        -0.316029
 H         1.054190         1.460589         2.692582
 H         3.479233        -0.650575         2.416687
 H         1.635489        -1.046648         2.501919
 H         2.284756        -2.301090         0.218472
