19
Iteration:  4546
 C        -0.067707        -0.285575         0.096975
 C         1.378718        -0.263105         0.124793
 O         1.947637         0.074225        -1.242168
 C         3.264490        -0.169474        -0.401435
 C         3.392548         1.155169         0.311138
 C         2.229076         0.787612         1.175974
 O         1.492534         1.896694         1.779541
 C         2.570943        -0.472244         1.885836
 C         2.495551        -1.173503         0.510515
 H        -0.494591        -0.836564         1.018048
 H        -0.430392         0.742556        -0.063941
 H        -0.479047        -0.814022        -0.769921
 H         4.183544        -0.548275        -0.990771
 H         4.311742         1.180594         1.060483
 H         3.231118         1.953925        -0.461223
 H         0.852139         1.423353         2.332540
 H         3.447495        -0.799608         2.509527
 H         1.676016        -0.811940         2.461713
 H         2.502227        -2.186082         0.326925
