19
Iteration:  3252charge 0 multiplicity 1
 C        -0.043728        -0.197309         0.081344
 C         1.459862        -0.177276         0.058030
 O         2.024036         0.109277        -1.227445
 C         3.231903        -0.233530        -0.499291
 C         3.346630         1.144718         0.327194
 C         2.178951         0.771660         1.146365
 O         1.443097         1.754096         1.876352
 C         2.491277        -0.514740         1.969191
 C         2.495487        -1.242946         0.577670
 H        -0.322552        -0.418144         1.168661
 H        -0.059650         0.856393        -0.082556
 H        -0.444535        -0.782173        -0.706649
 H         4.072141        -0.477718        -1.215844
 H         4.361124         1.410192         0.645183
 H         3.092787         1.922834        -0.400441
 H         1.393381         2.528528         1.227391
 H         3.429087        -0.526741         2.453936
 H         1.632874        -0.853606         2.647253
 H         2.447793        -2.311255         0.431924
