19
Iteration:  2769
 C        -0.127241        -0.399775         0.082334
 C         1.335065        -0.108810         0.008682
 O         1.989127         0.141781        -1.326751
 C         3.225983        -0.229386        -0.494270
 C         3.501069         0.966181         0.462643
 C         2.201039         0.867969         1.210255
 O         1.596793         1.842507         1.921115
 C         2.507618        -0.453538         1.905450
 C         2.451882        -1.088214         0.480175
 H        -0.543571        -0.306043         1.093171
 H        -0.681857         0.295149        -0.613703
 H        -0.360048        -1.420755        -0.258424
 H         4.133575        -0.393874        -1.144009
 H         4.392410         0.856833         1.116141
 H         3.619192         1.984800         0.001967
 H         0.687167         1.925850         1.622985
 H         3.419579        -0.422394         2.513206
 H         1.646936        -0.895193         2.378318
 H         2.177678        -2.241257         0.387345
