19
Iteration:  1025
 C        -0.146231        -0.140604        -0.051282
 C         1.410310        -0.052422         0.024402
 O         2.154432         0.110101        -1.269611
 C         3.290648        -0.210385        -0.426955
 C         3.447730         0.964390         0.468145
 C         2.155668         0.772162         1.213554
 O         1.580303         1.871539         1.918675
 C         2.380589        -0.645342         1.902889
 C         2.420070        -1.147722         0.458099
 H        -0.573633        -0.433770         0.902891
 H        -0.683957         0.832136        -0.209697
 H        -0.599261        -0.776186        -0.809881
 H         4.192134        -0.612307        -1.049828
 H         4.310770         1.110056         1.153457
 H         3.319723         1.855834        -0.174718
 H         0.671925         1.624791         2.059013
 H         3.315687        -0.772107         2.428916
 H         1.546238        -1.029181         2.513969
 H         2.257359        -2.203115         0.206038
