19
Iteration:   607
 C        -0.205282        -0.300358        -0.071779
 C         1.372368        -0.137126        -0.137782
 O         2.167485         0.184050        -1.243291
 C         3.319913        -0.154611        -0.499424
 C         3.434122         0.994708         0.552635
 C         2.151931         0.765843         1.184090
 O         1.737892         1.912583         2.092504
 C         2.279218        -0.600792         1.871188
 C         2.386794        -1.161984         0.435951
 H        -0.733555        -0.589811         0.841794
 H        -0.614068         0.601984        -0.435374
 H        -0.631566        -0.915433        -0.812454
 H         4.295623        -0.526765        -0.929361
 H         4.277342         0.830082         1.220920
 H         3.636560         1.912675        -0.015086
 H         0.775765         1.917789         1.967977
 H         3.026092        -0.794831         2.623182
 H         1.324602        -0.843938         2.256733
 H         2.309714        -2.219456         0.151148
