19
Iteration:  1482
 C        -0.082297        -0.330900        -0.095677
 C         1.354500        -0.108963         0.048662
 O         2.052623         0.255428        -1.230816
 C         3.292162        -0.201491        -0.543314
 C         3.472915         0.956287         0.530647
 C         2.084781         0.748419         1.215420
 O         1.581333         1.877187         1.966453
 C         2.340872        -0.630744         1.912838
 C         2.449477        -1.115612         0.411886
 H        -0.455678        -0.666605         0.901993
 H        -0.585007         0.578284        -0.491736
 H        -0.289568        -1.049678        -0.926195
 H         4.073154        -0.370073        -1.229148
 H         4.192486         0.830945         1.419513
 H         3.694811         2.021401         0.296013
 H         2.121104         2.651171         1.953173
 H         3.187880        -0.819336         2.602219
 H         1.445375        -1.149332         2.208619
 H         2.524706        -2.168864         0.203078
