19
Iteration:  4550
 C        -0.087381        -0.272314         0.117573
 C         1.376386        -0.243478         0.094955
 O         1.963908         0.062791        -1.213128
 C         3.231426        -0.188403        -0.429100
 C         3.406541         1.178060         0.314337
 C         2.230580         0.748138         1.204438
 O         1.488107         1.903263         1.754656
 C         2.566208        -0.498978         1.907930
 C         2.538001        -1.133815         0.506096
 H        -0.455603        -0.822689         0.892366
 H        -0.492227         0.770189        -0.116690
 H        -0.383068        -0.770244        -0.883131
 H         4.105334        -0.521069        -1.038661
 H         4.271856         1.198115         0.881714
 H         3.093464         1.953911        -0.438553
 H         0.964114         1.385357         2.452781
 H         3.480401        -0.779867         2.565315
 H         1.536313        -0.862541         2.432374
 H         2.513807        -2.293080         0.461766
