19
Iteration:  1314charge 0 multiplicity 1
 C        -0.177892        -0.345794        -0.233506
 C         1.306966        -0.134073         0.004388
 O         2.020737         0.164232        -1.249290
 C         3.273691        -0.170511        -0.526223
 C         3.455241         1.033015         0.542603
 C         2.152076         0.742361         1.263046
 O         1.681224         1.903055         1.981846
 C         2.320323        -0.554498         1.974247
 C         2.533216        -1.157031         0.455765
 H        -0.871203        -0.626036         0.548228
 H        -0.722122         0.483395        -0.609205
 H        -0.225323        -1.185159        -0.959698
 H         4.074451        -0.414364        -1.184315
 H         4.270792         0.858100         1.305803
 H         3.452526         2.057308         0.073607
 H         2.361664         2.031100         2.659240
 H         3.112272        -0.506578         2.680374
 H         1.346356        -0.764699         2.394809
 H         2.611775        -2.187738         0.079299
