19
Iteration:  3612charge 0 multiplicity 1
 C        -0.088393        -0.385239         0.054567
 C         1.384212        -0.100760         0.114096
 O         1.973111         0.197002        -1.199493
 C         3.171148        -0.234964        -0.489701
 C         3.413889         1.117916         0.356785
 C         2.240451         0.784995         1.199423
 O         1.594352         1.859587         1.759902
 C         2.568450        -0.559171         1.949433
 C         2.430882        -1.138633         0.569827
 H        -0.676060        -0.594299         0.981907
 H        -0.556253         0.498775        -0.389121
 H        -0.177922        -1.165608        -0.769237
 H         3.891507        -0.646417        -1.141519
 H         4.315561         1.204335         0.993350
 H         3.439020         1.926988        -0.294304
 H         0.631859         1.626192         1.726646
 H         3.518696        -0.719631         2.461394
 H         1.706634        -0.856113         2.593015
 H         2.390418        -2.201253         0.292249
