19
Iteration:  4688
 C        -0.042456        -0.319116         0.073956
 C         1.443346        -0.131500         0.019876
 O         1.969917         0.104199        -1.233437
 C         3.260251        -0.214177        -0.488647
 C         3.413340         1.049017         0.324750
 C         2.151502         0.782123         1.173099
 O         1.481690         1.825556         1.914568
 C         2.492158        -0.513628         1.931120
 C         2.485487        -1.130483         0.534041
 H        -0.280912        -0.134510         1.140841
 H        -0.603058         0.300866        -0.665748
 H        -0.445869        -1.292229        -0.267086
 H         4.289816        -0.426151        -0.987704
 H         4.158619         1.236507         1.183578
 H         3.057706         1.886746        -0.328202
 H         1.380307         2.677315         1.416432
 H         3.452709        -0.583708         2.432196
 H         1.804609        -0.904023         2.605624
 H         2.519639        -2.128489         0.227369
