19
Iteration:  1452charge 0 multiplicity 1
 C        -0.111342        -0.297187        -0.209919
 C         1.341988        -0.016260         0.008782
 O         2.088101         0.217035        -1.227154
 C         3.258864        -0.265938        -0.434560
 C         3.506842         1.045406         0.437675
 C         2.208022         0.796319         1.237970
 O         1.487600         1.760464         1.974409
 C         2.470293        -0.571423         1.916190
 C         2.265422        -1.125926         0.504010
 H        -0.324205        -0.876462         0.689372
 H        -0.683886         0.634503        -0.152682
 H        -0.048318        -0.913286        -1.041990
 H         4.113069        -0.644541        -1.121567
 H         4.276457         0.973950         1.143804
 H         3.600557         1.943374        -0.180039
 H         2.101564         2.233531         2.627357
 H         3.455232        -0.899033         2.306585
 H         1.673998        -0.934003         2.581399
 H         2.339665        -2.153053         0.142955
