19
Iteration:  3706charge 0 multiplicity 1
 C        -0.065776        -0.264349        -0.032857
 C         1.361863        -0.155092         0.057159
 O         1.917751         0.058079        -1.195230
 C         3.201878        -0.219194        -0.510413
 C         3.419413         1.019926         0.344815
 C         2.237892         0.788060         1.224844
 O         1.507741         1.838538         1.836896
 C         2.613151        -0.451175         1.991198
 C         2.523373        -1.137703         0.535971
 H        -0.671554        -0.425474         0.902984
 H        -0.506483         0.749858        -0.350076
 H        -0.437659        -0.857235        -0.861598
 H         3.913440        -0.371974        -1.364016
 H         4.400011         1.204781         0.865358
 H         3.281132         2.013690        -0.192968
 H         0.781965         1.404403         2.252962
 H         3.599831        -0.312451         2.404560
 H         1.849421        -0.756991         2.734769
 H         2.487407        -2.184232         0.485065
