19
Iteration:  1277
 C        -0.183920        -0.235885        -0.124630
 C         1.406334         0.033919         0.044103
 O         2.129720         0.150377        -1.245839
 C         3.301983        -0.278025        -0.376368
 C         3.427991         1.073800         0.461354
 C         2.164180         0.759706         1.220723
 O         1.500860         1.783681         1.981476
 C         2.478412        -0.611937         1.882077
 C         2.356019        -1.190477         0.440390
 H        -0.542734        -0.767560         0.734190
 H        -0.721020         0.625040        -0.535627
 H        -0.211149        -0.873543        -0.973729
 H         4.103765        -0.828802        -1.042014
 H         4.317747         1.204513         1.073801
 H         3.196178         1.957368        -0.144270
 H         2.064598         2.621768         2.001844
 H         3.429472        -0.671118         2.438801
 H         1.713013        -0.884316         2.631757
 H         2.153136        -2.163274        -0.047828
