19
Iteration:  1777
 C        -0.058895        -0.174602        -0.140344
 C         1.401089        -0.055986         0.096203
 O         1.984385         0.230991        -1.151118
 C         3.332221        -0.185422        -0.512020
 C         3.460934         1.036873         0.462739
 C         2.136113         0.703501         1.275574
 O         1.514448         1.779036         1.876934
 C         2.370378        -0.687214         1.910883
 C         2.474476        -1.168876         0.437729
 H        -0.738213        -0.404943         0.714404
 H        -0.491471         0.772359        -0.636642
 H        -0.250020        -0.913108        -0.901030
 H         4.158524        -0.451550        -1.197676
 H         4.372037         1.013411         1.134731
 H         3.429626         2.082814         0.061679
 H         2.268122         2.293605         2.270735
 H         3.048093        -1.077294         2.737816
 H         1.404755        -1.144522         2.309593
 H         2.422900        -2.169597         0.000435
