19
Iteration:  4040charge 0 multiplicity 1
 C        -0.085404        -0.323637         0.060742
 C         1.406014        -0.068230         0.060775
 O         2.009692         0.140268        -1.160232
 C         3.276011        -0.203502        -0.434377
 C         3.407636         1.027960         0.338384
 C         2.099610         0.787295         1.125976
 O         1.537795         1.814880         1.811835
 C         2.542058        -0.557383         1.951640
 C         2.488824        -1.120407         0.555248
 H        -0.535987        -0.275576         1.000146
 H        -0.591145         0.456817        -0.414892
 H        -0.111714        -1.273127        -0.571438
 H         3.907769        -0.590456        -1.249003
 H         4.148536         1.054740         1.092535
 H         3.364665         1.914363        -0.329687
 H         0.849732         2.274756         1.354654
 H         3.438901        -0.365431         2.509258
 H         1.709647        -1.004851         2.450048
 H         2.452005        -2.198639         0.309636
