19
Iteration:  2002charge 0 multiplicity 1
 C        -0.027379        -0.231384        -0.090122
 C         1.403342        -0.039694        -0.009149
 O         2.087093         0.344480        -1.166381
 C         3.281576        -0.198423        -0.425050
 C         3.425305         0.957550         0.429349
 C         2.176324         0.712501         1.251748
 O         1.468838         1.816498         1.845060
 C         2.428401        -0.694036         1.878387
 C         2.370659        -1.175182         0.480495
 H        -0.340239        -0.638390         0.950835
 H        -0.626397         0.673704        -0.139561
 H        -0.444284        -0.977157        -0.850056
 H         4.114312        -0.545422        -1.054294
 H         4.411643         0.970300         0.980612
 H         3.354215         1.848487        -0.191104
 H         1.803866         2.084842         2.730338
 H         3.318198        -0.869149         2.501349
 H         1.544257        -1.073984         2.348096
 H         2.274640        -2.236370         0.146022
