19
Iteration:  4494
 C        -0.052896        -0.423649         0.142029
 C         1.392532        -0.170333         0.037462
 O         1.977978         0.079592        -1.186793
 C         3.252143        -0.153499        -0.472348
 C         3.459126         1.159707         0.344564
 C         2.190254         0.780370         1.132224
 O         1.546409         1.943356         1.870548
 C         2.457907        -0.567925         1.912515
 C         2.469115        -1.152261         0.497148
 H        -0.566475        -0.390633         1.052495
 H        -0.502540         0.419240        -0.494747
 H        -0.279748        -1.404080        -0.354275
 H         4.011991        -0.509404        -1.268111
 H         4.357513         1.228816         0.931036
 H         3.394406         2.043275        -0.345018
 H         0.661310         2.132451         1.489080
 H         3.456972        -0.674142         2.483236
 H         1.734183        -0.925228         2.725388
 H         2.333102        -2.173529         0.193927
