19
Iteration:  2851charge 0 multiplicity 1
 C        -0.150457        -0.263506         0.008721
 C         1.317837        -0.139486         0.114254
 O         1.947787         0.043119        -1.206523
 C         3.264927        -0.270218        -0.458943
 C         3.497904         1.029826         0.406487
 C         2.176133         0.847101         1.181428
 O         1.414725         1.847502         1.832895
 C         2.637963        -0.469774         1.827273
 C         2.502735        -1.139869         0.481802
 H        -0.620887        -0.815681         0.914209
 H        -0.667115         0.676287        -0.042648
 H        -0.357421        -0.849004        -0.894431
 H         4.107163        -0.613629        -1.021240
 H         4.286568         0.963933         1.200946
 H         3.410444         2.015980        -0.091850
 H         1.970972         2.390040         2.379049
 H         3.645155        -0.513544         2.329725
 H         1.863846        -0.722450         2.650590
 H         2.591754        -2.134435         0.287611
