19
Iteration:  3785
 C        -0.177425        -0.410642         0.129682
 C         1.360855        -0.178037         0.041335
 O         2.010472         0.061570        -1.213966
 C         3.316816        -0.233064        -0.495356
 C         3.536628         1.078912         0.381517
 C         2.142022         0.868722         1.141897
 O         1.532475         1.912455         1.830399
 C         2.480562        -0.439203         1.835519
 C         2.526021        -1.066921         0.484045
 H        -0.404274        -0.741721         1.202944
 H        -0.934246         0.419904         0.043893
 H        -0.435050        -1.254839        -0.452467
 H         4.107517        -0.660410        -1.074936
 H         4.317572         0.985662         1.176464
 H         3.488599         1.962182        -0.191421
 H         0.945007         1.563190         2.477749
 H         3.255039        -0.555424         2.597000
 H         1.505042        -0.820184         2.300283
 H         2.254747        -2.130933         0.295278
