19
Iteration:  3213
 C        -0.101538        -0.287956         0.169287
 C         1.382325        -0.181400        -0.024701
 O         2.061991         0.022997        -1.255818
 C         3.216542        -0.214728        -0.472940
 C         3.571489         1.118090         0.414803
 C         2.170312         0.894306         1.140190
 O         1.401858         1.809530         1.948869
 C         2.534346        -0.479434         1.832925
 C         2.448811        -1.204287         0.452164
 H        -0.561302        -0.220007         1.139740
 H        -0.637203         0.662962        -0.224862
 H        -0.687491        -1.127022        -0.371627
 H         4.026197        -0.588951        -1.119692
 H         4.418437         1.041908         1.175784
 H         3.781654         2.057257        -0.161108
 H         0.872152         2.430346         1.458311
 H         3.505102        -0.573891         2.470847
 H         1.815858        -0.648497         2.615999
 H         2.383499        -2.316411         0.257563
