19
Iteration:  2944charge 0 multiplicity 1
 C        -0.110720        -0.433203        -0.052774
 C         1.342232        -0.079092         0.141315
 O         1.974845         0.162216        -1.213795
 C         3.250462        -0.215079        -0.468348
 C         3.444271         1.025600         0.330938
 C         2.169467         0.823982         1.142536
 O         1.514641         1.836747         1.878636
 C         2.592086        -0.502014         1.956975
 C         2.418660        -1.134379         0.581325
 H        -0.746954        -0.405412         0.773846
 H        -0.479040         0.460902        -0.633333
 H        -0.325960        -1.338674        -0.665155
 H         4.053083        -0.722233        -1.035620
 H         4.364770         1.123003         0.862670
 H         3.362834         1.879329        -0.335396
 H         2.179393         2.584596         1.924818
 H         3.556183        -0.479035         2.453069
 H         1.814752        -0.895976         2.547051
 H         2.111136        -2.238757         0.364015
