19
Iteration:   737
 C        -0.167680         0.038138         0.009364
 C         1.423352        -0.063823        -0.009625
 O         2.221877         0.167792        -1.208574
 C         3.345285        -0.280322        -0.428129
 C         3.502020         0.995025         0.470375
 C         2.113190         0.734392         1.151839
 O         1.434138         1.664046         1.916248
 C         2.473245        -0.610297         1.825820
 C         2.337270        -1.161250         0.520932
 H        -0.594403        -0.081947         1.044538
 H        -0.461237         1.021949        -0.285184
 H        -0.603677        -0.766153        -0.541228
 H         4.143090        -0.734050        -1.021428
 H         4.319557         1.098485         1.156394
 H         3.329096         1.938251        -0.071079
 H         0.602277         1.957693         1.420618
 H         3.476945        -0.569894         2.280311
 H         1.718947        -1.018651         2.485070
 H         2.266842        -2.203736         0.197047
