19
Iteration:  4682
 C        -0.095958        -0.314823         0.092771
 C         1.395566        -0.116231         0.019228
 O         2.008794         0.085898        -1.250929
 C         3.279617        -0.186522        -0.477190
 C         3.350521         1.065442         0.402461
 C         2.133046         0.751519         1.197596
 O         1.501389         1.819745         1.865010
 C         2.570183        -0.496446         1.917692
 C         2.481756        -1.145028         0.510977
 H        -0.458780        -0.161631         1.105106
 H        -0.622863         0.377450        -0.584718
 H        -0.273610        -1.366794        -0.226331
 H         4.130884        -0.426575        -1.037213
 H         4.217948         1.236602         0.988733
 H         3.248691         2.006669        -0.174063
 H         1.648603         2.631474         1.290463
 H         3.450054        -0.476174         2.617422
 H         1.721747        -0.995412         2.541701
 H         2.400403        -2.235644         0.164431
