19
Iteration:  2715charge 0 multiplicity 1
 C        -0.110400        -0.026002         0.168978
 C         1.353948        -0.164255         0.002818
 O         2.021716         0.034657        -1.209611
 C         3.293173        -0.146920        -0.462517
 C         3.399612         1.091021         0.380630
 C         2.089509         0.671663         1.174878
 O         1.495508         1.825967         1.706072
 C         2.558023        -0.625812         1.923872
 C         2.553415        -1.162381         0.510093
 H        -0.424524        -0.363633         1.086623
 H        -0.401411         1.043627        -0.043553
 H        -0.501042        -0.737133        -0.579736
 H         4.081899        -0.493947        -1.171197
 H         4.102707         0.943702         1.169813
 H         3.198885         2.066630        -0.078280
 H         0.776834         1.716673         2.367715
 H         3.553562        -0.499755         2.432767
 H         1.860140        -1.047576         2.682936
 H         2.835595        -2.270200         0.265816
