19
Iteration:  1593charge 0 multiplicity 1
 C        -0.079532        -0.110794        -0.170582
 C         1.432677        -0.208047        -0.013973
 O         2.114250         0.174862        -1.244318
 C         3.265661        -0.233321        -0.407787
 C         3.334397         1.059200         0.513328
 C         2.089181         0.727038         1.258458
 O         1.552540         1.828455         2.037389
 C         2.508615        -0.679756         1.902488
 C         2.432171        -1.201183         0.429451
 H        -0.658455        -0.480973         0.756965
 H        -0.250875         1.042087        -0.266721
 H        -0.420089        -0.632413        -1.065879
 H         4.149645        -0.344251        -1.125793
 H         4.181349         1.378598         1.190907
 H         3.086683         1.948148        -0.231376
 H         1.397384         2.592939         1.359962
 H         3.354609        -0.955043         2.517639
 H         1.584859        -0.886820         2.474348
 H         2.119774        -2.182624         0.047354
