19
Iteration:  2471charge 0 multiplicity 1
 C        -0.101141        -0.465190         0.002466
 C         1.359203        -0.056732        -0.045634
 O         1.965805         0.198378        -1.293910
 C         3.206981        -0.238823        -0.488421
 C         3.486260         0.963138         0.452266
 C         2.098019         0.855431         1.207210
 O         1.740992         1.983781         1.971043
 C         2.425778        -0.592283         1.888721
 C         2.478535        -1.108321         0.492054
 H        -0.281467        -1.260939         0.826147
 H        -0.810060         0.318195         0.245575
 H        -0.386079        -0.900037        -0.960524
 H         4.121583        -0.529459        -1.122129
 H         4.373970         0.909741         1.090895
 H         3.587081         1.981096         0.008538
 H         0.805396         1.925088         2.086291
 H         3.230843        -0.719155         2.653531
 H         1.473632        -0.995683         2.360182
 H         2.146911        -2.136665         0.341634
