19
Iteration:  2573
 C        -0.094169        -0.120749         0.184924
 C         1.392231        -0.102644         0.100006
 O         2.127120         0.135797        -1.253995
 C         3.285497        -0.273912        -0.520795
 C         3.475081         1.029706         0.368400
 C         2.153735         0.724106         1.172786
 O         1.409951         1.800848         1.827951
 C         2.547742        -0.548888         1.843023
 C         2.421697        -1.130257         0.471598
 H        -0.343564         0.136942         1.215867
 H        -0.655094         0.666958        -0.445567
 H        -0.606285        -1.093318         0.042543
 H         4.147962        -0.479447        -1.125878
 H         4.287611         0.993720         1.082092
 H         3.316243         1.939904        -0.169890
 H         0.606552         1.241396         2.039750
 H         3.591926        -0.541983         2.286226
 H         1.789085        -0.829753         2.638654
 H         2.102488        -2.168359         0.278105
