19
Iteration:   824
 C        -0.072548        -0.331171        -0.082132
 C         1.352615         0.062864        -0.080302
 O         2.131879         0.123085        -1.271528
 C         3.244824        -0.258075        -0.481267
 C         3.474849         0.967977         0.513333
 C         2.150665         0.854631         1.228156
 O         1.596720         1.915576         2.029007
 C         2.380587        -0.591301         1.862670
 C         2.346883        -1.130567         0.444657
 H        -0.348442        -0.900009         0.854226
 H        -0.837247         0.418185        -0.237430
 H        -0.216745        -1.159959        -0.787487
 H         4.018562        -0.433568        -1.117677
 H         4.272399         0.798351         1.222506
 H         3.821856         1.812525        -0.081194
 H         1.235321         1.562751         2.890323
 H         3.294025        -0.776697         2.527383
 H         1.458727        -0.997154         2.313641
 H         2.120035        -2.041903        -0.095604
