19
Iteration:  2296charge 0 multiplicity 1
 C         0.000130        -0.398901        -0.035483
 C         1.410210        -0.002166         0.093557
 O         2.010951         0.375050        -1.232117
 C         3.250359        -0.205945        -0.463808
 C         3.481654         0.924872         0.434115
 C         2.141460         0.702841         1.261940
 O         1.685569         1.911750         1.852831
 C         2.338437        -0.650388         1.931671
 C         2.334338        -1.128166         0.444550
 H        -0.147004        -0.950102         0.939313
 H        -0.687539         0.396123        -0.130680
 H        -0.170097        -1.067511        -0.935860
 H         4.149402        -0.355417        -1.160661
 H         4.324133         0.840378         1.044464
 H         3.437728         1.684197        -0.326171
 H         0.743989         1.740600         1.817306
 H         3.219023        -0.932864         2.577834
 H         1.431711        -0.878783         2.556531
 H         2.088401        -2.174236         0.162350
