19
Iteration:  3310
 C        -0.029841        -0.453505         0.033035
 C         1.394366        -0.127986         0.014783
 O         1.990500         0.152628        -1.199928
 C         3.244162        -0.285089        -0.440108
 C         3.409303         1.068118         0.361768
 C         2.159417         0.845462         1.155507
 O         1.515020         1.886764         1.892754
 C         2.518872        -0.474526         1.954230
 C         2.370269        -1.120950         0.479110
 H        -0.337786        -0.732319         1.029075
 H        -0.675224         0.427733        -0.090673
 H        -0.395035        -1.199563        -0.762795
 H         3.979846        -0.702946        -1.122708
 H         4.348725         0.981475         0.941620
 H         3.412353         1.894011        -0.360214
 H         2.202023         2.547013         1.859722
 H         3.512966        -0.582937         2.459201
 H         1.732092        -0.721434         2.648246
 H         2.331292        -2.176424         0.087813
