19
Iteration:  4054charge 0 multiplicity 1
 C        -0.030201        -0.308962         0.064549
 C         1.411389        -0.117160         0.163450
 O         2.035662         0.152008        -1.190420
 C         3.262589        -0.270570        -0.534769
 C         3.469426         1.064773         0.324855
 C         2.175006         0.785004         1.231430
 O         1.438345         1.846472         1.858996
 C         2.473668        -0.483414         1.910380
 C         2.447202        -1.143592         0.487105
 H        -0.397651        -0.466666         1.105416
 H        -0.424908         0.438201        -0.655009
 H        -0.418865        -1.253694        -0.333468
 H         4.166560        -0.623369        -0.999779
 H         4.476072         1.179322         0.752382
 H         3.334492         1.882975        -0.332347
 H         0.741458         2.058278         1.159301
 H         3.507139        -0.640045         2.412473
 H         1.643784        -0.923826         2.583283
 H         2.284972        -2.155531         0.325293
