19
Iteration:  4959
 C        -0.140620        -0.345501         0.226371
 C         1.363721        -0.253285         0.081536
 O         1.985796         0.100521        -1.174288
 C         3.278377        -0.097196        -0.497566
 C         3.437011         1.146162         0.386287
 C         2.079374         0.805486         1.108564
 O         1.487741         1.879277         1.650273
 C         2.549168        -0.578017         1.917382
 C         2.537892        -1.149725         0.498896
 H        -0.470146        -0.564700         1.257191
 H        -0.575409         0.615998         0.076790
 H        -0.391321        -1.171641        -0.424186
 H         4.190223        -0.558420        -1.111366
 H         4.492929         1.139923         0.831318
 H         3.386791         1.993329        -0.241172
 H         1.713127         1.915666         2.562475
 H         3.535063        -0.568086         2.490164
 H         1.719017        -0.888528         2.607775
 H         2.561375        -2.143354         0.138235
