19
Iteration:  1535charge 0 multiplicity 1
 C        -0.005722        -0.062570        -0.006355
 C         1.426308        -0.035459        -0.022176
 O         2.104387         0.195330        -1.247068
 C         3.286358        -0.251127        -0.434896
 C         3.532308         0.980519         0.468314
 C         2.082440         0.765192         1.215749
 O         1.370659         1.725003         1.982023
 C         2.433650        -0.629489         1.829876
 C         2.464355        -1.188996         0.452747
 H        -0.398052         0.023645         1.066337
 H        -0.528012         0.771226        -0.583073
 H        -0.553876        -1.046203        -0.401710
 H         4.112546        -0.420087        -1.048781
 H         4.421600         0.597504         1.176446
 H         3.730144         2.025201         0.110273
 H         0.598463         2.016554         1.524051
 H         3.472870        -0.672213         2.262038
 H         1.684501        -1.013573         2.519370
 H         2.229854        -2.165500         0.051780
