19
Iteration:  1199charge 0 multiplicity 1
 C        -0.090101        -0.112857        -0.001593
 C         1.399811        -0.090614        -0.016390
 O         2.105737         0.202048        -1.287729
 C         3.342608        -0.220637        -0.348130
 C         3.495821         1.038428         0.564678
 C         2.138801         0.758375         1.245744
 O         1.509062         1.890226         1.807510
 C         2.452379        -0.731050         1.864841
 C         2.310448        -1.227836         0.436527
 H        -0.494918        -0.246653         1.003203
 H        -0.521390         0.803492        -0.423680
 H        -0.491585        -0.999307        -0.516205
 H         4.299348        -0.331000        -0.963745
 H         4.360363         0.977217         1.216869
 H         3.367051         1.816288        -0.169115
 H         0.636215         1.547414         2.043603
 H         3.512782        -0.782410         2.294456
 H         1.737845        -1.160954         2.559064
 H         2.170896        -2.279480         0.159142
