19
Iteration:  2965charge 0 multiplicity 1
 C        -0.091529        -0.436879        -0.201779
 C         1.279013        -0.115515         0.063047
 O         1.965171         0.085212        -1.095532
 C         3.176051        -0.230239        -0.460121
 C         3.391841         1.119155         0.282996
 C         2.191788         0.800663         1.226024
 O         1.683576         1.932788         2.011981
 C         2.489013        -0.483469         1.938454
 C         2.468450        -1.200275         0.555236
 H        -0.681732        -0.579328         0.653218
 H        -0.585962         0.243818        -0.986437
 H         0.012549        -1.452298        -0.716906
 H         3.860352        -0.585006        -1.311735
 H         4.331024         1.333400         0.763237
 H         3.274871         1.978149        -0.385842
 H         1.956299         2.733869         1.602515
 H         3.500459        -0.501502         2.434135
 H         1.667281        -0.746178         2.560479
 H         2.432074        -2.373583         0.367596
