19
Iteration:  4490charge 0 multiplicity 1
 C        -0.041637        -0.413407         0.089552
 C         1.390668        -0.188661         0.055179
 O         1.963688         0.078492        -1.138743
 C         3.267309        -0.131441        -0.481936
 C         3.472788         1.157724         0.314495
 C         2.168317         0.774428         1.146887
 O         1.557800         1.932609         1.859293
 C         2.452855        -0.543630         1.909218
 C         2.464022        -1.172925         0.500506
 H        -0.495976        -0.281004         1.176348
 H        -0.617254         0.330844        -0.411914
 H        -0.187720        -1.392271        -0.299108
 H         3.934774        -0.512681        -1.237074
 H         4.400748         1.336721         1.031787
 H         3.393759         2.067418        -0.257178
 H         0.709647         2.140703         1.458465
 H         3.443993        -0.691093         2.327609
 H         1.661046        -0.972587         2.526828
 H         2.330533        -2.206544         0.224473
