19
Iteration:  1108
 C        -0.147005        -0.193649        -0.159693
 C         1.361790        -0.090809        -0.047322
 O         2.151754         0.192207        -1.233150
 C         3.280412        -0.256473        -0.402043
 C         3.445989         0.978444         0.510994
 C         2.071230         0.744836         1.178797
 O         1.613500         1.829814         1.923584
 C         2.424776        -0.496510         1.917146
 C         2.332071        -1.166326         0.450621
 H        -0.341850        -0.655051         0.840931
 H        -0.497790         0.830038        -0.410518
 H        -0.400438        -0.963308        -0.954676
 H         4.049415        -0.739741        -0.911187
 H         4.170672         0.841853         1.307184
 H         3.485208         1.956082         0.032491
 H         1.810384         1.590958         2.877127
 H         3.428281        -0.391847         2.478026
 H         1.647071        -1.035010         2.462423
 H         2.179914        -2.233756         0.314122
