19
Iteration:  2523
 C        -0.047111        -0.161217        -0.046601
 C         1.340704        -0.146457         0.098864
 O         1.998015         0.139203        -1.181795
 C         3.224378        -0.245396        -0.508490
 C         3.343370         1.076081         0.301905
 C         2.134440         0.736065         1.250211
 O         1.626424         1.871702         1.875196
 C         2.480238        -0.551883         1.968449
 C         2.511685        -1.257453         0.433016
 H        -0.656791        -0.392646         0.828100
 H        -0.544414         0.729306        -0.357174
 H        -0.149134        -0.922363        -0.878830
 H         4.136032        -0.241396        -1.151579
 H         4.279816         1.296394         0.918185
 H         3.031840         1.968119        -0.318498
 H         1.280097         1.599535         2.711758
 H         3.297406        -0.595545         2.658794
 H         1.669665        -0.888890         2.625682
 H         2.818609        -2.344447         0.370253
