19
Iteration:  2556charge 0 multiplicity 1
 C        -0.118824        -0.021771         0.138329
 C         1.357806        -0.113755        -0.024545
 O         1.972706         0.022960        -1.280194
 C         3.279995        -0.158372        -0.434986
 C         3.459656         1.093388         0.460116
 C         2.147357         0.801733         1.167274
 O         1.460581         1.762399         1.778784
 C         2.616427        -0.610275         1.943559
 C         2.490676        -1.209557         0.456893
 H        -0.560360         0.033890         1.149452
 H        -0.477248         0.765563        -0.517075
 H        -0.662563        -0.967302        -0.151146
 H         4.163644        -0.565879        -1.002198
 H         4.366129         0.939172         1.159377
 H         3.469996         2.021034        -0.192751
 H         0.803735         1.490549         2.469755
 H         3.598110        -0.573637         2.336183
 H         1.815778        -1.033727         2.531393
 H         2.756035        -2.273403         0.222128
