19
Iteration:  4746
 C        -0.051531        -0.269542         0.026687
 C         1.383674        -0.266727         0.070499
 O         2.034449         0.074715        -1.235115
 C         3.223167        -0.177727        -0.466629
 C         3.373184         1.074630         0.346779
 C         2.123374         0.787373         1.180449
 O         1.463780         1.906090         1.917247
 C         2.634479        -0.518527         1.928792
 C         2.453149        -1.199674         0.491830
 H        -0.486524        -0.451752         0.949820
 H        -0.395220         0.758194        -0.096488
 H        -0.474788        -1.104355        -0.542395
 H         4.073327        -0.450508        -0.981455
 H         4.143799         1.229863         1.040301
 H         3.281056         2.073112        -0.167966
 H         1.316655         2.535911         1.213645
 H         3.595640        -0.379713         2.322657
 H         1.916731        -0.980422         2.549816
 H         2.387064        -2.306951         0.331809
