19
Iteration:  3353charge 0 multiplicity 1
 C        -0.049877        -0.353601         0.098839
 C         1.383394        -0.217684        -0.020308
 O         1.989616         0.081036        -1.271667
 C         3.218208        -0.131573        -0.493347
 C         3.421176         1.051614         0.425949
 C         2.140049         0.799709         1.190504
 O         1.545247         1.860286         1.831352
 C         2.413010        -0.523665         1.947416
 C         2.530094        -1.140768         0.508175
 H        -0.121836        -0.353683         1.209589
 H        -0.465326         0.662745        -0.045392
 H        -0.597878        -1.153882        -0.555093
 H         4.063642        -0.516571        -1.066611
 H         4.307426         1.066492         1.108094
 H         3.423273         2.011155        -0.101894
 H         1.913075         2.714350         1.697705
 H         3.345765        -0.378794         2.560682
 H         1.610481        -0.932814         2.579306
 H         2.291908        -2.215039         0.237758
