19
Iteration:  1704charge 0 multiplicity 1
 C        -0.019197         0.014455        -0.036157
 C         1.430907        -0.125741         0.015400
 O         2.036415         0.173089        -1.256255
 C         3.353250        -0.222498        -0.502512
 C         3.452634         1.036636         0.429091
 C         2.116286         0.713318         1.256235
 O         1.364541         1.718118         1.888262
 C         2.428920        -0.657865         1.949761
 C         2.533802        -1.158935         0.432529
 H        -0.505422        -0.047523         0.939538
 H        -0.288324         1.059564        -0.433838
 H        -0.512329        -0.806159        -0.562842
 H         4.084028        -0.569384        -1.302043
 H         4.195973         0.905516         1.183560
 H         3.509557         1.993676        -0.202971
 H         1.530212         1.692821         2.813157
 H         3.163510        -0.556057         2.713536
 H         1.543792        -1.125138         2.422191
 H         2.308721        -2.222228         0.250964
