19
Iteration:   308charge 0 multiplicity 1
 C        -0.032334        -0.244748        -0.091495
 C         1.444927        -0.113792        -0.025631
 O         2.054099         0.165995        -1.283229
 C         3.309933        -0.126434        -0.526187
 C         3.470537         0.928227         0.600987
 C         2.058976         0.759310         1.269128
 O         1.651748         1.939593         1.888413
 C         2.282113        -0.635294         1.923808
 C         2.399416        -1.140684         0.445319
 H        -0.519326        -0.623008         0.791205
 H        -0.356515         0.742166        -0.291830
 H        -0.400045        -0.829911        -0.911594
 H         4.254649        -0.454300        -1.066698
 H         4.247976         0.651458         1.323804
 H         3.602562         1.975757         0.288403
 H         1.044369         1.648720         2.565009
 H         3.096722        -0.815750         2.610169
 H         1.361684        -1.076954         2.311973
 H         2.183922        -2.237109         0.011911
