19
Iteration:  4668
 C        -0.196630        -0.357831         0.113091
 C         1.339844        -0.177808         0.181494
 O         2.104047         0.074318        -1.247267
 C         3.233356        -0.121770        -0.506591
 C         3.438124         1.154898         0.436951
 C         2.083097         0.743388         1.194057
 O         1.519811         1.852508         1.779896
 C         2.532715        -0.587877         1.911492
 C         2.532456        -1.101328         0.445726
 H        -0.583673        -0.264048         1.082050
 H        -0.632843         0.411841        -0.614440
 H        -0.679737        -1.274585        -0.387735
 H         4.112883        -0.481174        -1.169971
 H         4.200756         0.874791         1.194454
 H         3.263038         2.065460        -0.247945
 H         1.914962         2.624856         1.434066
 H         3.551541        -0.489599         2.313278
 H         1.790407        -0.968795         2.620926
 H         2.529828        -2.170713         0.410996
