19
Iteration:  3565charge 0 multiplicity 1
 C        -0.084505        -0.103282         0.098860
 C         1.390676        -0.213374         0.097618
 O         1.976603        -0.053792        -1.270241
 C         3.259458        -0.147189        -0.498416
 C         3.406503         1.118062         0.375297
 C         2.139896         0.775401         1.079654
 O         1.495786         1.791702         1.825421
 C         2.542839        -0.526683         1.925221
 C         2.553668        -1.138650         0.549973
 H        -0.334624        -0.313937         1.243186
 H        -0.372217         1.003016         0.066949
 H        -0.532798        -0.785867        -0.597462
 H         4.274750        -0.348945        -1.020227
 H         4.379316         1.298005         0.887905
 H         3.311623         2.151313        -0.121755
 H         0.779067         1.367946         2.266005
 H         3.354951        -0.540442         2.673406
 H         1.527912        -0.845666         2.360358
 H         2.557254        -2.192139         0.283086
