19
Iteration:   357charge 0 multiplicity 1
 C        -0.003448        -0.010652        -0.091655
 C         1.415091        -0.066144         0.039406
 O         2.143724         0.230799        -1.186458
 C         3.264745        -0.228315        -0.424414
 C         3.462094         0.981048         0.456098
 C         2.191120         0.716855         1.259723
 O         1.346724         1.658672         1.824139
 C         2.438269        -0.579847         1.930347
 C         2.353873        -1.207598         0.421001
 H        -0.590347        -0.122119         0.860600
 H        -0.242127         1.001467        -0.617629
 H        -0.373723        -0.722233        -0.892621
 H         4.100745        -0.632032        -0.963367
 H         4.418010         0.881044         0.992913
 H         3.389418         1.870510        -0.200929
 H         1.835153         1.970553         2.652049
 H         3.352434        -0.824724         2.546147
 H         1.574446        -0.852208         2.571957
 H         2.228782        -2.288817         0.232015
