19
Iteration:  2176
 C        -0.044524        -0.167615        -0.074898
 C         1.394569        -0.118084        -0.005727
 O         1.984638         0.194758        -1.304443
 C         3.317374        -0.194880        -0.473127
 C         3.437583         1.032271         0.487558
 C         2.085667         0.729810         1.239857
 O         1.600210         1.829632         1.977551
 C         2.431168        -0.596227         1.893123
 C         2.467032        -1.153386         0.419066
 H        -0.580661         0.086366         0.860533
 H        -0.443416         0.512676        -0.752768
 H        -0.522438        -1.067194        -0.539015
 H         4.189851        -0.682060        -0.960291
 H         4.213252         0.989949         1.256150
 H         3.350551         1.936235        -0.085665
 H         1.188144         1.346449         2.758965
 H         3.251823        -0.684882         2.654198
 H         1.586786        -1.168986         2.329753
 H         2.352170        -2.253435         0.344028
