19
Iteration:  1940
 C        -0.069043        -0.183283        -0.036398
 C         1.457431        -0.102616         0.060042
 O         2.129068         0.348256        -1.203655
 C         3.335009        -0.156137        -0.490189
 C         3.492947         1.000585         0.396068
 C         2.077353         0.696585         1.232656
 O         1.515277         1.736606         2.022671
 C         2.332921        -0.659524         1.852157
 C         2.378909        -1.272649         0.417516
 H        -0.489882         0.050727         0.934562
 H        -0.366848         0.591362        -0.776774
 H        -0.311264        -1.133729        -0.387938
 H         4.108629        -0.552867        -1.162476
 H         4.453650         1.107428         0.948498
 H         3.374379         2.040491         0.052881
 H         1.194135         2.308016         1.282838
 H         2.985276        -0.559572         2.758614
 H         1.426768        -1.008153         2.401361
 H         2.259897        -2.298876         0.141711
