19
Iteration:  3342charge 0 multiplicity 1
 C        -0.097188        -0.378782         0.140843
 C         1.420540        -0.132229         0.044522
 O         2.034702         0.101047        -1.282039
 C         3.290852        -0.184151        -0.548765
 C         3.420526         1.072894         0.341400
 C         2.190337         0.783516         1.219504
 O         1.520718         1.846652         1.848836
 C         2.380561        -0.517659         2.000343
 C         2.459771        -1.089831         0.507963
 H        -0.470196        -0.773371         1.125396
 H        -0.668564         0.508463        -0.207650
 H        -0.510721        -1.294291        -0.473023
 H         4.108345        -0.513438        -1.220144
 H         4.404084         0.980147         0.868725
 H         3.304534         2.007422        -0.220729
 H         2.104986         2.626442         1.733355
 H         3.140465        -0.715006         2.798322
 H         1.350344        -0.686790         2.359176
 H         2.569599        -2.167693         0.168927
