19
Iteration:  3723charge 0 multiplicity 1
 C        -0.224428        -0.127365         0.041048
 C         1.389819        -0.226681         0.147006
 O         1.983477         0.038149        -1.182170
 C         3.249918        -0.130127        -0.522760
 C         3.428731         1.135948         0.376401
 C         2.122469         0.717132         1.152235
 O         1.491203         1.826994         1.728845
 C         2.694910        -0.530119         1.923505
 C         2.527409        -1.158884         0.598380
 H        -0.719836        -0.544385         0.897953
 H        -0.509403         0.845810        -0.316696
 H        -0.540386        -1.020372        -0.661773
 H         4.118420        -0.545235        -1.074436
 H         4.272589         1.021980         1.041628
 H         3.628856         2.087915        -0.149685
 H         0.634624         1.753059         2.118837
 H         3.721008        -0.567129         2.397189
 H         2.005476        -0.993852         2.627877
 H         2.532324        -2.258638         0.251625
