19
Iteration:   202charge 0 multiplicity 1
 C        -0.049371        -0.009758         0.008021
 C         1.406436        -0.153898        -0.016959
 O         2.149350         0.215378        -1.198882
 C         3.314014        -0.236727        -0.405553
 C         3.376692         1.032242         0.447019
 C         2.118180         0.695276         1.237518
 O         1.525345         1.817891         1.775077
 C         2.346982        -0.712929         1.864770
 C         2.459827        -1.187421         0.486447
 H        -0.329613        -0.075010         1.083804
 H        -0.358477         1.019022        -0.347132
 H        -0.544867        -0.740244        -0.695650
 H         4.271939        -0.441424        -0.888646
 H         4.245154         1.226979         1.076222
 H         3.279353         1.893993        -0.195813
 H         1.030986         1.505176         2.515263
 H         3.026460        -0.887976         2.689719
 H         1.376573        -1.085695         2.330577
 H         2.545952        -2.288186         0.222290
