19
Iteration:  2124
 C        -0.078683        -0.363972        -0.028674
 C         1.358448        -0.019908        -0.024179
 O         2.039893         0.305576        -1.214460
 C         3.235401        -0.146436        -0.444497
 C         3.531995         0.881802         0.568143
 C         2.064518         0.762745         1.180907
 O         1.656684         1.912784         1.915528
 C         2.349073        -0.673923         1.894530
 C         2.473580        -1.152014         0.363711
 H        -0.606154        -0.440195         1.002685
 H        -0.831385         0.350282        -0.438565
 H        -0.291856        -1.348479        -0.429461
 H         3.980829        -0.486739        -1.194609
 H         4.364090         0.724370         1.313168
 H         3.733620         1.935757         0.170423
 H         0.685087         1.900308         1.629586
 H         3.352787        -0.546120         2.303096
 H         1.797118        -1.055675         2.726346
 H         2.469880        -2.194639         0.052319
