19
Iteration:  4401
 C        -0.047690        -0.262986         0.129427
 C         1.437246        -0.225535        -0.029398
 O         2.012620         0.038873        -1.212617
 C         3.280378        -0.155665        -0.494290
 C         3.328293         1.104211         0.250190
 C         2.144636         0.787548         1.189149
 O         1.406056         1.838214         1.817887
 C         2.549801        -0.490196         1.948535
 C         2.517339        -1.164424         0.585897
 H        -0.316773        -0.635608         1.154464
 H        -0.369821         0.751438         0.038772
 H        -0.623013        -0.868251        -0.572184
 H         4.029975        -0.350210        -1.191838
 H         4.307067         1.245164         0.821154
 H         2.982535         2.012108        -0.257904
 H         2.051693         2.376647         2.326619
 H         3.434269        -0.720630         2.508694
 H         1.818212        -0.904178         2.618877
 H         2.466197        -2.280807         0.380007
