19
Iteration:  2863charge 0 multiplicity 1
 C        -0.107865        -0.191837         0.160452
 C         1.412983        -0.151616         0.161304
 O         2.049762         0.096335        -1.221875
 C         3.233881        -0.206946        -0.507502
 C         3.471003         1.074504         0.376782
 C         2.144804         0.793936         1.113859
 O         1.349608         1.802965         1.718877
 C         2.573407        -0.515896         1.965566
 C         2.453911        -1.199949         0.467777
 H        -0.559931        -0.751350         1.068755
 H        -0.444497         0.825145         0.062233
 H        -0.345082        -0.740824        -0.745200
 H         4.020184        -0.653486        -1.107809
 H         4.409492         1.077506         0.980782
 H         3.602817         1.880589        -0.362440
 H         1.790923         2.132029         2.564116
 H         3.630832        -0.385845         2.306945
 H         1.917257        -1.039910         2.722969
 H         2.396984        -2.180916         0.163468
