19
Iteration:  3409charge 0 multiplicity 1
 C         0.029904        -0.158964         0.040698
 C         1.429234        -0.118054         0.097962
 O         1.946334         0.077915        -1.207504
 C         3.304908        -0.200019        -0.517810
 C         3.419198         1.078058         0.266917
 C         2.228581         0.793732         1.132141
 O         1.428935         1.704058         1.941987
 C         2.497990        -0.483042         1.938513
 C         2.438859        -1.197686         0.586683
 H        -0.416299        -0.288302         0.989263
 H        -0.360727         0.779205        -0.453052
 H        -0.348190        -0.983003        -0.738324
 H         3.953532        -0.775476        -1.097552
 H         4.258367         1.079302         0.980556
 H         3.191900         1.992440        -0.296295
 H         0.837791         2.166219         1.282277
 H         3.467114        -0.606330         2.529013
 H         1.729878        -0.379830         2.634075
 H         2.503585        -2.291462         0.355624
