19
Iteration:  1823
 C        -0.103884        -0.318634         0.098651
 C         1.346551         0.026235        -0.014668
 O         2.130613         0.288467        -1.301144
 C         3.338707        -0.161163        -0.458296
 C         3.494684         0.828361         0.603981
 C         2.035404         0.719956         1.180556
 O         1.493590         1.852611         1.929260
 C         2.372810        -0.681571         1.784596
 C         2.433035        -1.108198         0.373812
 H        -0.357083        -0.882871         0.991179
 H        -0.807680         0.597135        -0.074000
 H        -0.198985        -0.895581        -0.830530
 H         4.293334        -0.493226        -0.942035
 H         4.174397         0.705458         1.422539
 H         3.825102         1.757421         0.028328
 H         1.943765         2.765265         1.945004
 H         3.231507        -0.591549         2.417381
 H         1.654324        -0.984712         2.601152
 H         2.247016        -2.110638         0.034598
