19
Iteration:  4191charge 0 multiplicity 1
 C        -0.061805        -0.310688         0.178418
 C         1.429964        -0.109566         0.075290
 O         2.018153         0.062988        -1.203058
 C         3.277339        -0.162423        -0.522866
 C         3.396935         1.144370         0.415399
 C         2.169613         0.752343         1.095131
 O         1.505951         1.911870         1.708702
 C         2.487606        -0.589077         1.885217
 C         2.463364        -1.156025         0.587961
 H        -0.423985        -0.860730         1.004083
 H        -0.548912         0.594677        -0.100037
 H        -0.411380        -0.994033        -0.718157
 H         4.102484        -0.489193        -1.204996
 H         4.300315         1.113906         1.028536
 H         3.218419         2.134937        -0.196271
 H         1.119037         1.720648         2.550465
 H         3.311027        -0.696642         2.571668
 H         1.611800        -0.833856         2.535122
 H         2.387933        -2.329768         0.328494
