19
Iteration:  4023charge 0 multiplicity 1
 C        -0.180488        -0.356009        -0.000293
 C         1.328024        -0.241221         0.048066
 O         1.993282         0.106061        -1.275036
 C         3.276152        -0.193381        -0.502175
 C         3.440085         1.102809         0.458098
 C         2.153164         0.786635         1.200699
 O         1.571205         1.894628         1.875775
 C         2.505884        -0.468364         1.927019
 C         2.538706        -1.188021         0.506136
 H        -0.554403        -0.447089         1.117325
 H        -0.694593         0.671732        -0.281865
 H        -0.519711        -1.199031        -0.560553
 H         4.234821        -0.426867        -0.932469
 H         4.379055         1.078503         1.102388
 H         3.418807         2.032078        -0.085984
 H         1.182659         2.356384         1.148971
 H         3.465847        -0.515496         2.561951
 H         1.780082        -0.807949         2.747359
 H         2.542526        -2.285149         0.389829
