19
Iteration:  2568
 C        -0.142332        -0.089138         0.204225
 C         1.424506        -0.094607         0.050286
 O         2.116370         0.085803        -1.260421
 C         3.261968        -0.206052        -0.503041
 C         3.458457         1.009039         0.438123
 C         2.159433         0.735932         1.183342
 O         1.410214         1.774764         1.810379
 C         2.563201        -0.526166         1.818260
 C         2.413741        -1.162200         0.487649
 H        -0.389676         0.256822         1.233623
 H        -0.564093         0.639189        -0.420082
 H        -0.508441        -1.069653        -0.103727
 H         4.095127        -0.483371        -1.205175
 H         4.448272         1.078941         0.985542
 H         3.429668         1.922885        -0.233337
 H         0.635746         1.323825         2.124116
 H         3.527503        -0.499839         2.276209
 H         1.955435        -0.941274         2.592788
 H         2.284327        -2.219667         0.270998
