19
Iteration:  3102charge 0 multiplicity 1
 C        -0.049671        -0.242778         0.079539
 C         1.406843        -0.222514         0.064540
 O         1.987645         0.099362        -1.260744
 C         3.271959        -0.232026        -0.438988
 C         3.367046         1.159604         0.275589
 C         2.195666         0.804509         1.211400
 O         1.465024         1.815627         1.839218
 C         2.482166        -0.525076         1.952352
 C         2.465591        -1.202517         0.511300
 H        -0.200312        -0.719217         1.103926
 H        -0.329195         0.817984         0.000821
 H        -0.490340        -0.881790        -0.683754
 H         4.052810        -0.807129        -0.992250
 H         4.371920         1.271022         0.785644
 H         3.053027         2.023607        -0.333920
 H         2.104212         2.588486         1.925206
 H         3.385479        -0.649868         2.605490
 H         1.541859        -0.733287         2.590428
 H         2.590215        -2.245275         0.342104
