19
Iteration:   170
 C        -0.111422        -0.165280         0.025672
 C         1.354274        -0.029785        -0.097546
 O         2.223508         0.057497        -1.330984
 C         3.318700        -0.170469        -0.458696
 C         3.506785         0.968107         0.596317
 C         2.119175         0.857903         1.202727
 O         1.477394         1.863181         1.902243
 C         2.354922        -0.636899         1.828381
 C         2.337050        -1.130256         0.448503
 H        -0.239085        -0.435684         1.109675
 H        -0.705066         0.793794        -0.134651
 H        -0.456135        -1.034155        -0.622495
 H         4.235696        -0.588828        -0.876384
 H         4.238393         0.573321         1.333864
 H         3.839148         1.901768         0.127303
 H         1.174154         1.578790         2.796689
 H         3.323470        -0.773158         2.397227
 H         1.481243        -1.089883         2.465166
 H         2.347128        -2.188209         0.177068
