19
Iteration:  1679
 C        -0.160826        -0.160356         0.032602
 C         1.349468        -0.166306         0.022784
 O         2.118115         0.244684        -1.215661
 C         3.308249        -0.085060        -0.404606
 C         3.456634         1.003149         0.562572
 C         2.145368         0.698946         1.248546
 O         1.506350         1.835174         1.737447
 C         2.426571        -0.676197         1.835952
 C         2.446211        -1.192712         0.371780
 H        -0.766937        -0.461339         0.916200
 H        -0.595377         0.832951        -0.308231
 H        -0.335756        -0.999918        -0.625131
 H         4.132476        -0.385647        -1.050781
 H         4.153333         0.594120         1.328681
 H         3.608244         1.990006         0.123511
 H         1.660102         1.952858         2.685547
 H         3.370524        -0.804437         2.400545
 H         1.580868        -1.021885         2.440538
 H         2.546234        -2.246226         0.167056
