19
Iteration:  1387
 C        -0.085663         0.007658         0.093164
 C         1.424942        -0.152333         0.054520
 O         2.084432         0.095119        -1.245744
 C         3.331356        -0.133679        -0.458810
 C         3.523165         1.012700         0.544388
 C         2.158987         0.770836         1.206372
 O         1.327913         1.741005         1.752716
 C         2.432026        -0.596706         1.895498
 C         2.462993        -1.228359         0.350702
 H        -0.490186        -0.121770         1.127811
 H        -0.454391         1.033251        -0.173796
 H        -0.701648        -0.699473        -0.491912
 H         4.269144        -0.350172        -1.156265
 H         4.314534         0.848212         1.229715
 H         3.703115         1.944042        -0.023942
 H         1.281097         1.574310         2.691721
 H         3.362327        -0.775190         2.462700
 H         1.485701        -0.938833         2.424013
 H         2.660682        -2.277129         0.029946
