19
Iteration:  4730charge 0 multiplicity 1
 C        -0.151454        -0.284807         0.032256
 C         1.365555        -0.112026         0.041963
 O         1.992548         0.007151        -1.263996
 C         3.296946        -0.180304        -0.470670
 C         3.406218         1.115265         0.382065
 C         2.125012         0.801614         1.174797
 O         1.527343         1.752004         1.911001
 C         2.543620        -0.486721         1.934796
 C         2.508562        -1.077531         0.557073
 H        -0.386375        -0.355241         1.178958
 H        -0.644099         0.554679        -0.532371
 H        -0.455006        -1.129140        -0.632273
 H         4.073781        -0.651403        -1.226253
 H         4.478789         1.096252         0.917971
 H         3.453131         1.965170        -0.309337
 H         0.983206         2.278369         1.358324
 H         3.604354        -0.491702         2.366335
 H         1.854738        -0.799451         2.793311
 H         2.588024        -2.145004         0.382362
