19
Iteration:  1805
 C        -0.085055        -0.363049         0.006787
 C         1.371664        -0.059667        -0.026505
 O         2.144028         0.380648        -1.172145
 C         3.250507        -0.195762        -0.472890
 C         3.522012         0.989093         0.553332
 C         2.147048         0.754987         1.265498
 O         1.531862         1.801075         1.829438
 C         2.314215        -0.648245         1.877083
 C         2.369169        -1.168507         0.377533
 H        -0.288493        -0.711175         1.022773
 H        -0.769383         0.410493        -0.160653
 H        -0.546863        -1.090859        -0.725591
 H         4.048837        -0.476232        -1.159108
 H         4.395491         0.865314         1.218042
 H         3.658502         1.982548         0.139415
 H         2.272825         2.492845         1.867126
 H         3.150489        -0.911985         2.531162
 H         1.483191        -1.192425         2.281905
 H         2.111336        -2.193047        -0.030032
