19
Iteration:  1742charge 0 multiplicity 1
 C        -0.159005         0.010508        -0.116986
 C         1.385344        -0.124023        -0.133863
 O         2.102440         0.136201        -1.260386
 C         3.350742        -0.275711        -0.419687
 C         3.463205         1.161544         0.425450
 C         2.123995         0.725151         1.263043
 O         1.402436         1.657155         1.987396
 C         2.566919        -0.569297         1.939259
 C         2.327260        -1.197379         0.477197
 H        -0.447481        -0.080286         0.964304
 H        -0.377756         0.990467        -0.500029
 H        -0.529873        -0.875094        -0.743620
 H         4.267562        -0.695837        -0.817860
 H         4.223172         1.141736         1.295296
 H         3.524861         2.011594        -0.252113
 H         1.775975         1.948445         2.881521
 H         3.703985        -0.864721         2.069722
 H         1.810926        -0.992811         2.606123
 H         2.266477        -2.271260         0.119853
