19
Iteration:   651
 C        -0.106449        -0.345708        -0.263297
 C         1.323376        -0.017173         0.108162
 O         2.152993         0.330875        -1.198133
 C         3.219148        -0.233246        -0.415724
 C         3.474378         0.928291         0.489176
 C         2.175772         0.756222         1.275347
 O         1.704533         1.928443         1.881258
 C         2.373422        -0.631568         1.946371
 C         2.273062        -1.213398         0.424496
 H        -0.516576        -0.991370         0.507315
 H        -0.897196         0.329625        -0.435201
 H        -0.055455        -0.915540        -1.199830
 H         4.063146        -0.555443        -1.150419
 H         4.351975         0.885446         1.154815
 H         3.462345         1.928204         0.000158
 H         1.137685         1.844945         2.674040
 H         3.298278        -0.667178         2.520893
 H         1.572856        -0.893184         2.604872
 H         2.084717        -2.242039         0.092662
