19
Iteration:    64charge 0 multiplicity 1
 C         0.050972        -0.129474        -0.026120
 C         1.474755         0.001419         0.042161
 O         2.068286         0.158913        -1.267476
 C         3.321188        -0.298139        -0.358166
 C         3.499781         1.010976         0.410687
 C         2.187979         0.752599         1.157327
 O         1.529624         1.790614         1.874708
 C         2.186166        -0.608677         1.943777
 C         2.368507        -1.161166         0.495634
 H        -0.500379        -0.388605         0.834711
 H        -0.372139         0.691191        -0.578531
 H         0.007161        -0.886121        -0.784168
 H         4.119361        -0.654656        -0.981763
 H         4.421819         1.387254         0.956505
 H         3.444812         1.888842        -0.271870
 H         0.755085         1.421350         2.359483
 H         3.006402        -0.762830         2.674678
 H         1.257866        -0.807301         2.378368
 H         2.233039        -2.110476         0.185808
