19
Iteration:  2142
 C        -0.146433        -0.402870        -0.015136
 C         1.412064        -0.080517         0.000175
 O         2.021756         0.329990        -1.244921
 C         3.331723        -0.154834        -0.441463
 C         3.481272         1.038134         0.540388
 C         2.164374         0.721884         1.278669
 O         1.714505         1.883363         1.873616
 C         2.383595        -0.660758         1.843714
 C         2.298700        -1.135644         0.408773
 H        -0.592258        -0.344386         0.976029
 H        -0.595267         0.303060        -0.661948
 H        -0.227187        -1.496002        -0.247847
 H         4.249470        -0.525050        -0.934661
 H         4.315629         1.028031         1.207593
 H         3.608639         1.972752         0.069059
 H         0.704338         1.827244         1.869293
 H         3.107393        -1.033642         2.606580
 H         1.362507        -1.063746         2.070255
 H         2.198564        -2.192010         0.076130
