19
Iteration:  1661
 C        -0.087395        -0.332110        -0.023699
 C         1.389695         0.048157         0.033745
 O         2.089992         0.316615        -1.188086
 C         3.310683        -0.210000        -0.451865
 C         3.516674         0.952536         0.568286
 C         2.123759         0.691066         1.202969
 O         1.499727         1.893132         1.756870
 C         2.387618        -0.732678         1.922577
 C         2.402340        -1.120068         0.395210
 H        -0.381947        -0.685967         0.962092
 H        -0.761226         0.558440        -0.155082
 H        -0.385446        -1.061259        -0.771983
 H         4.140899        -0.653515        -1.112257
 H         4.375013         1.097579         1.178473
 H         3.318096         1.915432        -0.037919
 H         1.825891         2.038726         2.645959
 H         3.294273        -0.933521         2.519693
 H         1.552076        -1.305551         2.386190
 H         2.073241        -2.097365        -0.016257
