19
Iteration:   385
 C        -0.174587         0.063687        -0.044006
 C         1.399519        -0.105048        -0.070145
 O         2.112173         0.025912        -1.291378
 C         3.445080        -0.150323        -0.438378
 C         3.465753         1.037858         0.518821
 C         2.025699         0.697439         1.238396
 O         1.420728         1.729742         1.973792
 C         2.359350        -0.677521         1.946200
 C         2.553549        -1.156092         0.373056
 H        -0.583982         0.152472         0.922311
 H        -0.307812         1.006625        -0.473039
 H        -0.833566        -0.395998        -0.738048
 H         4.365424        -0.474779        -1.008849
 H         4.160532         0.787401         1.326824
 H         3.634994         1.985339         0.027531
 H         2.034529         2.502861         1.866378
 H         3.181500        -0.882276         2.620925
 H         1.528712        -1.188602         2.461415
 H         2.403160        -2.334558         0.258773
