19
Iteration:  2975charge 0 multiplicity 1
 C        -0.146746        -0.499622        -0.216596
 C         1.337915        -0.145338         0.084111
 O         1.923683         0.076047        -1.236521
 C         3.190645        -0.195753        -0.450416
 C         3.388103         1.091923         0.343978
 C         2.169272         0.864275         1.234414
 O         1.746407         1.934587         2.042004
 C         2.502580        -0.491944         1.939009
 C         2.478019        -1.152560         0.583798
 H        -0.806148        -0.480005         0.617388
 H        -0.515692         0.386270        -0.858573
 H        -0.278913        -1.448218        -0.805951
 H         4.085814        -0.628229        -1.027041
 H         4.373178         1.204047         0.796369
 H         3.060362         1.865052        -0.362026
 H         1.831696         2.686948         1.448292
 H         3.384218        -0.400485         2.666919
 H         1.697646        -0.929018         2.511721
 H         2.415623        -2.297115         0.390905
