19
Iteration:  2947charge 0 multiplicity 1
 C        -0.108214        -0.435082        -0.088288
 C         1.356643        -0.092436         0.167506
 O         1.978701         0.164204        -1.179942
 C         3.270574        -0.227816        -0.495837
 C         3.426832         1.037371         0.302781
 C         2.160322         0.846900         1.147713
 O         1.534771         1.835702         1.891330
 C         2.590771        -0.503529         1.948997
 C         2.388680        -1.128408         0.583652
 H        -0.800215        -0.422335         0.779447
 H        -0.516173         0.375679        -0.654445
 H        -0.274308        -1.344504        -0.657840
 H         4.043455        -0.679944        -1.051648
 H         4.327711         1.091450         0.955861
 H         3.339972         1.871319        -0.410624
 H         2.166598         2.535589         1.868151
 H         3.526813        -0.569231         2.463575
 H         1.768207        -0.871219         2.614899
 H         2.175856        -2.167284         0.389564
