19
Iteration:  4600charge 0 multiplicity 1
 C        -0.158055        -0.349901         0.058654
 C         1.349037        -0.137210         0.050450
 O         2.023042         0.047559        -1.229582
 C         3.240287        -0.224275        -0.453721
 C         3.478970         1.129564         0.356410
 C         2.194228         0.872182         1.204876
 O         1.421635         1.827419         1.797789
 C         2.538289        -0.472472         1.861487
 C         2.508271        -1.155856         0.547693
 H        -0.201049        -0.862475         1.108954
 H        -0.645805         0.619579         0.238861
 H        -0.681334        -0.903879        -0.722174
 H         4.087431        -0.735203        -1.065576
 H         4.357024         1.149218         1.127919
 H         3.287802         1.925579        -0.389632
 H         1.881391         2.151180         2.622062
 H         3.547886        -0.470088         2.241129
 H         1.764399        -0.886987         2.414931
 H         2.672631        -2.150920         0.286300
