19
Iteration:  2986charge 0 multiplicity 1
 C        -0.203143        -0.478861        -0.147662
 C         1.312431        -0.241689         0.048950
 O         1.977063         0.041787        -1.336229
 C         3.262286        -0.205594        -0.489611
 C         3.315350         1.053503         0.355129
 C         2.117704         0.828691         1.285011
 O         1.807955         1.925525         2.037839
 C         2.497503        -0.456682         1.999799
 C         2.461282        -0.993880         0.554641
 H        -0.753451        -0.546375         0.745346
 H        -0.487597         0.428641        -0.798563
 H        -0.365802        -1.408286        -0.771891
 H         4.227725        -0.451828        -1.051324
 H         4.167902         1.094980         1.044579
 H         3.442066         1.971303        -0.232896
 H         1.490937         2.738730         1.540404
 H         3.477278        -0.647393         2.574601
 H         1.620768        -0.792910         2.525984
 H         2.467029        -2.151117         0.402449
