19
Iteration:  3591
 C        -0.136295        -0.208583         0.060296
 C         1.364270        -0.146980         0.045457
 O         2.020821         0.098630        -1.184205
 C         3.307497        -0.222440        -0.502772
 C         3.442665         1.045527         0.303693
 C         2.130427         0.706901         1.221510
 O         1.449811         1.916128         1.827701
 C         2.665180        -0.544151         1.952845
 C         2.429978        -1.182267         0.521508
 H        -0.382078        -0.387887         1.123327
 H        -0.567872         0.751493        -0.142698
 H        -0.510880        -0.970295        -0.685922
 H         4.116858        -0.400418        -1.129075
 H         4.361646         1.168321         0.878620
 H         3.292567         1.942805        -0.286448
 H         0.534899         1.694670         1.825221
 H         3.676603        -0.349412         2.287664
 H         2.056394        -1.005503         2.741015
 H         2.452320        -2.276221         0.333779
