19
Iteration:  3741
 C        -0.111821        -0.186064         0.154841
 C         1.371348        -0.156748         0.087678
 O         2.033703         0.063385        -1.184991
 C         3.310519        -0.209045        -0.443673
 C         3.337322         1.081063         0.390639
 C         2.119245         0.773287         1.194134
 O         1.461387         1.932345         1.698969
 C         2.599874        -0.597519         1.887916
 C         2.554899        -1.213866         0.453998
 H        -0.467753        -0.342670         1.214769
 H        -0.263241         0.890717        -0.111340
 H        -0.619019        -0.853133        -0.454867
 H         4.119102        -0.463906        -1.085927
 H         4.268681         1.270190         0.972855
 H         3.051625         1.802172        -0.323669
 H         0.680946         1.520521         2.033535
 H         3.522767        -0.479213         2.442021
 H         1.899864        -1.125027         2.620976
 H         2.715427        -2.263657         0.227358
