19
Iteration:  3145charge 0 multiplicity 1
 C        -0.118212        -0.459664        -0.033703
 C         1.300266        -0.198602        -0.029333
 O         1.998039         0.063647        -1.325969
 C         3.152033        -0.199056        -0.480017
 C         3.459138         1.054016         0.437134
 C         2.178779         0.867218         1.232794
 O         1.567039         1.907475         1.952536
 C         2.555630        -0.446475         1.938880
 C         2.431347        -1.086536         0.552475
 H        -0.544070        -0.622735         1.031963
 H        -0.645687         0.414243        -0.493917
 H        -0.396502        -1.348774        -0.609609
 H         4.022486        -0.559246        -1.120948
 H         4.407584         0.866612         0.996953
 H         3.532916         1.866181        -0.295474
 H         2.178831         2.687463         2.114565
 H         3.539327        -0.386734         2.403274
 H         1.943900        -0.932777         2.755749
 H         2.408883        -2.111794         0.244620
