19
Iteration:  3937
 C        -0.138045        -0.281795         0.107399
 C         1.415841        -0.179632         0.151255
 O         1.981572         0.034092        -1.189294
 C         3.231703        -0.166976        -0.539493
 C         3.462666         1.013851         0.482362
 C         2.140250         0.758978         1.185385
 O         1.390586         1.926134         1.658226
 C         2.583102        -0.493868         1.910166
 C         2.564025        -1.090713         0.465933
 H        -0.523647        -0.790645         1.011531
 H        -0.498649         0.710129        -0.250572
 H        -0.505385        -0.931769        -0.635254
 H         4.049637        -0.453066        -1.175449
 H         4.491798         0.892587         0.961912
 H         3.473270         1.992475         0.033663
 H         1.654244         2.019341         2.593718
 H         3.541348        -0.585233         2.326507
 H         1.835373        -0.963733         2.581053
 H         2.410454        -2.189574         0.357126
