19
Iteration:  1764
 C        -0.119517        -0.099471        -0.167719
 C         1.373874        -0.082545         0.070757
 O         2.117150         0.155301        -1.202462
 C         3.227280        -0.159578        -0.477063
 C         3.414200         0.992166         0.500602
 C         2.095234         0.704943         1.231361
 O         1.489161         1.768149         1.953043
 C         2.463996        -0.670960         1.885362
 C         2.513358        -1.147423         0.424097
 H        -0.634862        -0.223619         0.821759
 H        -0.326280         0.901746        -0.558151
 H        -0.382524        -0.917465        -0.916026
 H         3.982812        -0.441688        -1.193361
 H         4.312652         0.920047         1.227012
 H         3.443354         1.862205        -0.156949
 H         2.095402         2.208862         2.552249
 H         3.451291        -0.386162         2.462484
 H         1.586962        -1.181786         2.358538
 H         2.151812        -2.187226         0.258449
