19
Iteration:   188charge 0 multiplicity 1
 C        -0.090123        -0.059837         0.075089
 C         1.449236        -0.057308        -0.002082
 O         2.213178         0.098404        -1.368420
 C         3.381210        -0.196177        -0.421074
 C         3.388925         1.010189         0.571488
 C         2.067819         0.650869         1.212528
 O         1.521028         1.843688         1.817759
 C         2.318986        -0.642705         1.977333
 C         2.415325        -1.148960         0.345246
 H        -0.493026        -0.240448         1.069401
 H        -0.381765         0.912968        -0.236614
 H        -0.637151        -0.802747        -0.448859
 H         4.202399        -0.620227        -1.064755
 H         4.217679         1.108550         1.244488
 H         3.194603         1.965108         0.053880
 H         1.141796         1.691720         2.734995
 H         3.231581        -0.642283         2.482690
 H         1.470529        -1.078667         2.400783
 H         2.145275        -2.260645        -0.067404
