19
Iteration:   173
 C        -0.118086        -0.149501         0.045468
 C         1.356064        -0.028065        -0.087601
 O         2.238621         0.040813        -1.349954
 C         3.321630        -0.176618        -0.467595
 C         3.505502         0.979841         0.605033
 C         2.097188         0.812399         1.204510
 O         1.479401         1.877204         1.894443
 C         2.340822        -0.644748         1.838794
 C         2.342822        -1.138989         0.430857
 H        -0.229613        -0.365249         1.111873
 H        -0.691007         0.781479        -0.124802
 H        -0.432316        -0.976383        -0.614395
 H         4.289528        -0.476226        -0.878176
 H         4.308956         0.594832         1.325047
 H         3.750109         2.016043         0.201468
 H         1.204832         1.530118         2.788496
 H         3.347511        -0.679811         2.450871
 H         1.565375        -1.075495         2.545498
 H         2.253514        -2.104556         0.105266
