19
Iteration:   271
 C        -0.156919        -0.299332        -0.102481
 C         1.358142        -0.129024        -0.013937
 O         2.178929         0.228308        -1.198960
 C         3.372894        -0.239853        -0.364088
 C         3.420349         1.034981         0.469767
 C         2.175268         0.770352         1.171413
 O         1.673657         1.870470         2.030456
 C         2.327330        -0.606175         1.845906
 C         2.327493        -1.148717         0.397397
 H        -0.647158        -0.628734         0.843612
 H        -0.548803         0.754196        -0.305912
 H        -0.419807        -0.848080        -1.038111
 H         4.131416        -0.666153        -1.013022
 H         4.348566         1.172504         1.072219
 H         3.312560         1.883846        -0.247029
 H         0.730695         1.975150         1.885033
 H         3.149730        -0.963870         2.579450
 H         1.386778        -0.969712         2.337217
 H         2.041766        -2.091463         0.213877
