19
Iteration:  1436
 C        -0.129869        -0.192399        -0.123297
 C         1.397431        -0.097722         0.044834
 O         2.127113         0.212766        -1.135755
 C         3.299538        -0.262964        -0.437193
 C         3.454993         1.141911         0.436996
 C         2.182878         0.760257         1.193300
 O         1.492363         1.739578         1.898113
 C         2.457162        -0.647277         1.871288
 C         2.374033        -1.189472         0.459777
 H        -0.772743        -0.738259         0.571891
 H        -0.617111         0.768532        -0.326470
 H        -0.528299        -0.570353        -1.127946
 H         4.022332        -0.751770        -1.011562
 H         4.447393         1.430488         0.948255
 H         3.199893         1.960188        -0.257426
 H         1.939959         1.949446         2.746861
 H         3.384484        -0.669635         2.482862
 H         1.579561        -0.776236         2.516516
 H         2.008973        -2.210644         0.384573
