19
Iteration:  3485charge 0 multiplicity 1
 C        -0.091148        -0.398137        -0.009336
 C         1.350536        -0.084758         0.054195
 O         1.912398         0.222987        -1.199607
 C         3.259011        -0.258068        -0.501326
 C         3.460832         1.010570         0.330521
 C         2.170679         0.844590         1.242106
 O         1.526257         1.881075         1.827295
 C         2.468146        -0.552054         1.994220
 C         2.563617        -1.167921         0.530109
 H        -0.438733        -0.756492         0.894944
 H        -0.716166         0.355218        -0.493224
 H        -0.228882        -1.362021        -0.623967
 H         4.028012        -0.519217        -1.183307
 H         4.354106         0.888329         0.966784
 H         3.564977         1.866281        -0.336302
 H         2.026572         2.664559         1.990265
 H         3.238791        -0.635906         2.831148
 H         1.565720        -0.881691         2.438925
 H         2.406393        -2.228135         0.258893
