19
Iteration:  1809charge 0 multiplicity 1
 C        -0.106713        -0.367130         0.014476
 C         1.376313        -0.024120         0.004112
 O         2.158157         0.357441        -1.170895
 C         3.310964        -0.210693        -0.482370
 C         3.493753         0.949677         0.567165
 C         2.118133         0.744171         1.219459
 O         1.516474         1.820892         1.854147
 C         2.343363        -0.628500         1.871004
 C         2.351457        -1.133527         0.334067
 H        -0.265226        -0.770191         1.053123
 H        -0.862413         0.480508        -0.061402
 H        -0.474086        -1.132892        -0.678315
 H         4.056857        -0.553484        -1.208044
 H         4.344026         0.716351         1.288490
 H         3.609710         2.001032         0.239644
 H         2.259686         2.399410         1.816663
 H         3.288898        -0.854293         2.508578
 H         1.413714        -1.149629         2.237925
 H         2.192017        -2.158102         0.006963
