19
Iteration:  2869
 C        -0.064228        -0.177663         0.202143
 C         1.433635        -0.134102         0.107002
 O         2.064743         0.121104        -1.218733
 C         3.259017        -0.199909        -0.506658
 C         3.448611         1.066945         0.323657
 C         2.130442         0.756598         1.173642
 O         1.331369         1.785471         1.667860
 C         2.576872        -0.552988         1.969946
 C         2.451525        -1.177994         0.529133
 H        -0.487333        -0.603304         1.075155
 H        -0.469528         0.861472         0.181640
 H        -0.533522        -0.727786        -0.656474
 H         4.015588        -0.516415        -1.249794
 H         4.392941         1.124314         0.897671
 H         3.564896         1.939256        -0.355991
 H         1.764542         1.951598         2.502357
 H         3.558625        -0.461923         2.419594
 H         1.808997        -0.978008         2.632015
 H         2.215026        -2.287817         0.245131
