19
Iteration:  1264charge 0 multiplicity 1
 C        -0.144200        -0.146049        -0.072951
 C         1.345015        -0.039529         0.023667
 O         2.157155         0.129560        -1.246846
 C         3.306142        -0.199293        -0.449553
 C         3.468327         0.969061         0.481207
 C         2.146820         0.757868         1.235329
 O         1.439740         1.696538         1.930114
 C         2.489831        -0.580313         1.881631
 C         2.381648        -1.097922         0.469650
 H        -0.623585        -0.502189         0.871444
 H        -0.682940         0.869796        -0.122527
 H        -0.415638        -0.889855        -0.866066
 H         4.291082        -0.427806        -0.934893
 H         4.384868         0.927472         1.084364
 H         3.589199         1.869892        -0.146873
 H         1.643991         2.573570         1.605301
 H         3.512607        -0.623601         2.415315
 H         1.664250        -1.038502         2.453577
 H         2.166439        -2.168223         0.354397
