19
Iteration:  2397
 C        -0.086080        -0.009459         0.051627
 C         1.423663        -0.085242         0.018820
 O         2.038414         0.097014        -1.297182
 C         3.288003        -0.220536        -0.558631
 C         3.446633         1.039208         0.427771
 C         2.144829         0.792168         1.218924
 O         1.422611         1.722503         1.877682
 C         2.581658        -0.552745         1.915143
 C         2.421438        -1.242377         0.535053
 H        -0.488368        -0.033141         1.104845
 H        -0.371011         0.959477        -0.417058
 H        -0.647916        -0.792755        -0.423121
 H         4.086530        -0.514627        -1.264995
 H         4.194007         1.191189         1.168241
 H         3.632028         1.897353        -0.221729
 H         0.977528         1.114327         2.534301
 H         3.564109        -0.569538         2.438363
 H         1.690172        -0.932718         2.401069
 H         2.350195        -2.306095         0.551981
