19
Iteration:  3728
 C        -0.195900        -0.124392         0.096377
 C         1.381329        -0.243477         0.135872
 O         2.016082         0.042235        -1.189024
 C         3.241005        -0.138386        -0.445601
 C         3.412568         1.117746         0.346538
 C         2.107110         0.713756         1.176648
 O         1.477313         1.851027         1.712102
 C         2.678854        -0.565151         1.899088
 C         2.570451        -1.179494         0.543150
 H        -0.819690        -0.424126         1.001335
 H        -0.671486         0.829334        -0.335649
 H        -0.444055        -0.861583        -0.649152
 H         4.097339        -0.432686        -1.093266
 H         4.305866         1.103602         1.039737
 H         3.610292         2.080516        -0.191891
 H         0.562811         1.878627         2.149736
 H         3.686811        -0.570731         2.255673
 H         1.913608        -0.908795         2.626022
 H         2.526609        -2.178047         0.272497
