19
Iteration:  3261
 C        -0.013051        -0.190308         0.048022
 C         1.422668        -0.301105         0.119354
 O         1.935831         0.095888        -1.197625
 C         3.299529        -0.167701        -0.453855
 C         3.377009         1.110156         0.318816
 C         2.167621         0.798973         1.215959
 O         1.466650         1.805097         1.842949
 C         2.506173        -0.546186         1.856137
 C         2.508963        -1.195895         0.566417
 H        -0.672708        -0.418450         0.945382
 H        -0.327026         0.878850        -0.142343
 H        -0.424803        -0.764015        -0.747484
 H         4.086709        -0.530080        -1.128375
 H         4.319510         1.382775         0.831836
 H         3.114771         1.904153        -0.421128
 H         1.608783         2.643256         1.295992
 H         3.360153        -0.629350         2.538679
 H         1.648306        -0.955217         2.468803
 H         2.621746        -2.252504         0.461071
