19
Iteration:  4848
 C        -0.069684        -0.324643         0.081688
 C         1.406624        -0.235200         0.104028
 O         1.940753         0.062739        -1.204230
 C         3.240116        -0.152696        -0.547951
 C         3.442212         1.156397         0.401394
 C         2.103694         0.803185         1.214342
 O         1.600633         1.889350         1.793571
 C         2.500926        -0.484923         1.863505
 C         2.515607        -1.200164         0.528669
 H        -0.380520        -0.541927         1.150263
 H        -0.555318         0.548794        -0.290599
 H        -0.512579        -1.006566        -0.587303
 H         4.114322        -0.549572        -1.207910
 H         4.406321         1.442839         0.896538
 H         3.277130         1.977077        -0.238290
 H         0.694843         1.537568         2.095420
 H         3.413799        -0.506243         2.523077
 H         1.666799        -0.770142         2.582585
 H         2.547903        -2.327305         0.367282
