19
Iteration:  2019charge 0 multiplicity 1
 C        -0.138036        -0.124740        -0.061424
 C         1.422613        -0.059632         0.133951
 O         2.070301         0.198210        -1.219590
 C         3.288732        -0.254989        -0.496617
 C         3.542002         1.102817         0.460357
 C         2.164617         0.766753         1.220951
 O         1.461209         1.706547         1.850555
 C         2.408662        -0.644924         1.961548
 C         2.423197        -1.176949         0.393666
 H        -0.667016        -0.793618         0.541399
 H        -0.510890         0.896132        -0.207740
 H        -0.141391        -0.516977        -1.056160
 H         4.049897        -0.592781        -1.216222
 H         4.374143         1.201342         1.122573
 H         3.275049         1.969645        -0.159774
 H         1.684651         1.574397         2.808785
 H         3.314551        -0.615980         2.585744
 H         1.445041        -0.892731         2.508868
 H         2.335600        -2.226255         0.098999
