19
Iteration:  3586
 C        -0.128353        -0.185099         0.107815
 C         1.361232        -0.125129         0.055827
 O         2.044468         0.053673        -1.196986
 C         3.290936        -0.252283        -0.500483
 C         3.389010         1.062118         0.333949
 C         2.115230         0.709126         1.216984
 O         1.449980         1.910306         1.837143
 C         2.648862        -0.520537         1.892129
 C         2.483381        -1.185202         0.511245
 H        -0.665190        -0.414273         1.109773
 H        -0.454841         0.876749        -0.161951
 H        -0.479554        -0.886883        -0.622468
 H         4.164753        -0.483006        -1.223251
 H         4.276626         1.227656         0.993314
 H         3.586554         1.982421        -0.315990
 H         0.490870         1.633033         1.868428
 H         3.676193        -0.316726         2.258115
 H         2.012454        -1.057638         2.636167
 H         2.561994        -2.242948         0.278453
