19
Iteration:  1917
 C        -0.153985        -0.037832        -0.177290
 C         1.409260        -0.067550         0.022401
 O         2.091592         0.145001        -1.262322
 C         3.248781        -0.215986        -0.432197
 C         3.487394         1.071977         0.488006
 C         2.167099         0.757369         1.188875
 O         1.492950         1.650103         2.060211
 C         2.528303        -0.669566         1.888782
 C         2.406592        -1.093723         0.486993
 H        -0.605208         0.029661         0.828552
 H        -0.459164         0.772937        -0.817555
 H        -0.399409        -0.977460        -0.623285
 H         3.932626        -0.767797        -1.071144
 H         4.201529         1.146868         1.339092
 H         3.554660         2.026314        -0.025136
 H         0.759680         1.920812         1.510116
 H         3.456743        -0.900717         2.453746
 H         1.741918        -1.065003         2.506176
 H         2.353045        -2.066668         0.026286
