19
Iteration:  2171charge 0 multiplicity 1
 C        -0.062820        -0.218607        -0.061298
 C         1.447210        -0.092538        -0.012358
 O         1.985792         0.219819        -1.302822
 C         3.290580        -0.234963        -0.491335
 C         3.461541         1.050191         0.502312
 C         2.058147         0.721673         1.240592
 O         1.627088         1.837783         1.969078
 C         2.383888        -0.639060         1.901526
 C         2.478226        -1.140601         0.453526
 H        -0.632613         0.037465         0.832337
 H        -0.383247         0.663828        -0.790751
 H        -0.425150        -1.216998        -0.369061
 H         4.082962        -0.623319        -1.128773
 H         4.305030         1.288766         1.202330
 H         3.427862         1.968529        -0.135985
 H         1.127249         1.487548         2.701513
 H         3.158538        -0.727002         2.656729
 H         1.495551        -1.178016         2.295600
 H         2.367423        -2.190549         0.149285
