19
Iteration:   859charge 0 multiplicity 1
 C        -0.098253        -0.057988        -0.053938
 C         1.395509        -0.186452        -0.013345
 O         2.083535         0.215781        -1.147785
 C         3.260650        -0.142722        -0.484805
 C         3.397546         1.043959         0.455780
 C         2.149013         0.701469         1.163233
 O         1.555305         1.781038         1.836746
 C         2.469883        -0.688962         1.995805
 C         2.476999        -1.233144         0.519658
 H        -0.535137        -0.265163         0.902125
 H        -0.303699         0.988633        -0.235020
 H        -0.564553        -0.525695        -0.932845
 H         4.112908        -0.477968        -1.132622
 H         4.295848         1.097826         1.089640
 H         3.246878         1.907473        -0.217704
 H         0.613070         1.828386         1.567829
 H         3.314037        -0.696732         2.726649
 H         1.578698        -1.003243         2.508157
 H         2.418090        -2.260023         0.187688
