19
Iteration:  4224
 C        -0.150342        -0.293149         0.140449
 C         1.360945        -0.135060         0.085109
 O         2.064018         0.091423        -1.278446
 C         3.333183        -0.232556        -0.555206
 C         3.388005         1.052443         0.381926
 C         2.075984         0.816084         1.161164
 O         1.511343         1.904488         1.856215
 C         2.589665        -0.501573         1.943536
 C         2.523851        -1.185542         0.567417
 H        -0.538458        -0.426889         1.122279
 H        -0.576098         0.619541        -0.254794
 H        -0.587377        -1.045927        -0.608476
 H         4.113391        -0.560034        -1.289368
 H         4.290634         1.090303         1.013118
 H         3.213729         2.004636        -0.283669
 H         0.572649         1.728809         1.627148
 H         3.519370        -0.456951         2.431824
 H         1.706130        -0.958754         2.340501
 H         2.636346        -2.393614         0.438167
