19
Iteration:  1044
 C        -0.105080         0.016786         0.106276
 C         1.349238        -0.205742        -0.086468
 O         2.147890         0.183949        -1.215522
 C         3.355175        -0.234555        -0.391681
 C         3.438437         1.050175         0.575260
 C         2.036332         0.664689         1.132794
 O         1.534808         1.843446         1.749757
 C         2.479438        -0.624056         1.863831
 C         2.387618        -1.239705         0.444060
 H        -0.377654        -0.246468         1.156405
 H        -0.514899         0.993592        -0.281533
 H        -0.896589        -0.556555        -0.504404
 H         4.276682        -0.616182        -0.815892
 H         4.194570         0.927547         1.376017
 H         3.606906         2.053649         0.149851
 H         0.734621         1.572575         2.216709
 H         3.555323        -0.551208         2.300003
 H         1.661956        -1.085303         2.420015
 H         2.552093        -2.281414         0.167695
