19
Iteration:  1872
 C        -0.120785        -0.002497        -0.162605
 C         1.408786        -0.098486         0.067172
 O         2.078898         0.204404        -1.227632
 C         3.287204        -0.259404        -0.407047
 C         3.380697         1.155039         0.406202
 C         2.121208         0.624755         1.201689
 O         1.527314         1.677327         2.027524
 C         2.456215        -0.656729         1.912050
 C         2.498252        -1.201176         0.447261
 H        -0.657985        -0.356853         0.744467
 H        -0.250089         1.032593        -0.241200
 H        -0.351104        -0.469452        -1.143653
 H         4.119107        -0.666109        -0.972290
 H         4.375302         1.191425         0.907034
 H         3.344994         1.957939        -0.280391
 H         0.968097         2.363072         1.732868
 H         3.189621        -0.683144         2.731025
 H         1.650565        -1.150937         2.357628
 H         2.541159        -2.291789         0.269671
