19
Iteration:  2163
 C        -0.102526        -0.273959        -0.039725
 C         1.412611        -0.050976         0.015597
 O         2.062825         0.236319        -1.235321
 C         3.272721        -0.209775        -0.495145
 C         3.454449         1.066668         0.476864
 C         2.132465         0.733489         1.219706
 O         1.653559         1.846703         1.949205
 C         2.292344        -0.711555         1.899983
 C         2.477816        -1.142009         0.453079
 H        -0.503287        -0.075770         0.916768
 H        -0.361645         0.459756        -0.862985
 H        -0.253391        -1.353565        -0.330127
 H         3.931105        -0.422814        -1.334800
 H         4.368906         1.187909         1.028330
 H         3.307724         1.903275        -0.153341
 H         0.955879         1.740678         2.573949
 H         3.174384        -0.769817         2.571255
 H         1.290131        -1.023816         2.321475
 H         2.363725        -2.131393        -0.042260
