19
Iteration:  3731charge 0 multiplicity 1
 C        -0.173578        -0.135621         0.129954
 C         1.364388        -0.233985         0.121369
 O         2.032198         0.045191        -1.190649
 C         3.252009        -0.156363        -0.405296
 C         3.405224         1.105241         0.338176
 C         2.100650         0.731407         1.196249
 O         1.468915         1.874285         1.704550
 C         2.658730        -0.587113         1.889463
 C         2.590388        -1.184706         0.494117
 H        -0.784391        -0.292638         1.049800
 H        -0.650998         0.740450        -0.270632
 H        -0.410522        -0.750480        -0.671310
 H         4.018307        -0.348206        -1.090706
 H         4.273948         1.125702         1.016315
 H         3.450176         1.987252        -0.223365
 H         0.600229         1.824621         2.110934
 H         3.691966        -0.529501         2.232456
 H         1.862145        -0.889565         2.647468
 H         2.566195        -2.270260         0.277255
