19
Iteration:  4731charge 0 multiplicity 1
 C        -0.143435        -0.284391         0.042037
 C         1.370911        -0.121256         0.029747
 O         1.992695         0.009762        -1.264323
 C         3.289770        -0.179210        -0.468131
 C         3.407896         1.123338         0.382975
 C         2.111130         0.793242         1.184454
 O         1.528056         1.760557         1.908612
 C         2.551284        -0.489643         1.934075
 C         2.499353        -1.086517         0.562369
 H        -0.381666        -0.362676         1.162977
 H        -0.618510         0.556843        -0.551322
 H        -0.456161        -1.101526        -0.665014
 H         4.073569        -0.659955        -1.218020
 H         4.481356         1.072964         0.919913
 H         3.453300         1.995468        -0.328276
 H         0.988379         2.310091         1.340550
 H         3.592123        -0.489661         2.355489
 H         1.908077        -0.815886         2.772345
 H         2.586388        -2.122900         0.369831
