19
Iteration:  1830charge 0 multiplicity 1
 C        -0.063727        -0.274514         0.070001
 C         1.371443        -0.012539        -0.046854
 O         2.113910         0.261590        -1.363092
 C         3.272244        -0.180031        -0.423505
 C         3.515616         0.896270         0.592368
 C         2.068596         0.810165         1.226509
 O         1.472961         1.817918         1.961778
 C         2.348614        -0.674032         1.828477
 C         2.454997        -1.166494         0.397535
 H        -0.392434        -0.870941         0.952522
 H        -0.736920         0.612977        -0.021142
 H        -0.433770        -0.782747        -0.832673
 H         4.200350        -0.377197        -0.962198
 H         4.350755         0.722317         1.356677
 H         3.850586         1.802180         0.082870
 H         1.931237         2.678216         1.742423
 H         3.394542        -0.647838         2.371041
 H         1.625573        -1.270902         2.467483
 H         2.206927        -2.140263        -0.000649
