19
Iteration:  4010
 C        -0.147191        -0.368919         0.037058
 C         1.346692        -0.267668        -0.032562
 O         2.054974         0.009817        -1.219883
 C         3.259764        -0.124175        -0.479159
 C         3.407434         1.055135         0.382312
 C         2.179705         0.848833         1.280670
 O         1.548584         1.906868         1.913329
 C         2.493139        -0.500039         1.915636
 C         2.463939        -1.090161         0.512061
 H        -0.543245        -0.702598         1.039442
 H        -0.468683         0.627079        -0.389329
 H        -0.649928        -1.057936        -0.736669
 H         3.913261        -0.490095        -1.243694
 H         4.334411         1.017921         0.970687
 H         3.426081         1.978450        -0.168011
 H         1.506015         2.722628         1.309427
 H         3.515838        -0.470154         2.485314
 H         1.631656        -1.062842         2.371323
 H         2.641157        -2.089316         0.353491
