19
Iteration:   197charge 0 multiplicity 1
 C        -0.062287        -0.029770         0.045925
 C         1.408652        -0.115681        -0.010755
 O         2.174731         0.176843        -1.276103
 C         3.359968        -0.215921        -0.426820
 C         3.348745         1.014908         0.501919
 C         2.097513         0.700551         1.247504
 O         1.536430         1.805665         1.776223
 C         2.329121        -0.676518         1.931290
 C         2.446745        -1.177070         0.414049
 H        -0.372645        -0.057484         1.082388
 H        -0.324728         0.957888        -0.270057
 H        -0.524242        -0.725722        -0.613919
 H         4.285819        -0.614848        -0.910181
 H         4.154810         1.234248         1.228963
 H         3.211882         1.846780        -0.228553
 H         1.056499         1.648649         2.640824
 H         3.134979        -0.870927         2.685225
 H         1.430919        -1.111119         2.316943
 H         2.439267        -2.253468         0.091232
