19
Iteration:  3467charge 0 multiplicity 1
 C        -0.033150        -0.394125         0.052659
 C         1.391669        -0.120848         0.129831
 O         2.028118         0.134063        -1.145642
 C         3.249088        -0.146434        -0.489475
 C         3.419728         1.042163         0.382164
 C         2.104640         0.751782         1.169441
 O         1.573023         1.876741         1.849242
 C         2.441995        -0.549491         1.862711
 C         2.412629        -1.142993         0.485670
 H        -0.649758        -0.562458         1.014412
 H        -0.356424         0.590765        -0.426319
 H        -0.166974        -1.243139        -0.612528
 H         3.916486        -0.685583        -1.215914
 H         4.340797         1.320825         0.900850
 H         3.219040         2.000856        -0.196526
 H         2.002926         2.590898         1.385803
 H         3.348027        -0.527250         2.474608
 H         1.518361        -0.942902         2.381163
 H         2.373643        -2.216925         0.399483
