19
Iteration:  1733charge 0 multiplicity 1
 C        -0.104049         0.019531        -0.105545
 C         1.370752        -0.099478        -0.052066
 O         2.150720         0.095901        -1.241452
 C         3.326984        -0.245770        -0.365858
 C         3.460842         1.167484         0.413677
 C         2.222812         0.770165         1.216289
 O         1.361195         1.597415         1.962461
 C         2.529040        -0.645859         1.879510
 C         2.322614        -1.149340         0.453286
 H        -0.419817        -0.035398         0.972711
 H        -0.519797         0.976070        -0.505993
 H        -0.687824        -0.708633        -0.649317
 H         4.003454        -0.690573        -1.070469
 H         4.365338         1.417231         1.018509
 H         3.442929         1.958349        -0.350765
 H         1.671292         1.735409         2.901225
 H         3.531782        -0.636225         2.373425
 H         1.824113        -0.964244         2.668556
 H         2.054156        -2.175819         0.302432
