19
Iteration:  3656charge 0 multiplicity 1
 C        -0.106163        -0.460160         0.080498
 C         1.300846        -0.225763        -0.019441
 O         2.037679         0.098483        -1.370029
 C         3.258206        -0.110887        -0.453233
 C         3.364348         1.075718         0.423905
 C         2.146312         0.811515         1.241917
 O         1.731670         1.985211         1.855648
 C         2.458252        -0.493329         1.912571
 C         2.397028        -1.142156         0.465243
 H        -0.327567        -0.658462         1.156574
 H        -0.808680         0.311015        -0.164381
 H        -0.484531        -1.414940        -0.451083
 H         4.092172        -0.579185        -0.839184
 H         4.348581         1.094313         0.882791
 H         3.296971         2.068599         0.109381
 H         1.273671         1.784343         2.716847
 H         3.311025        -0.473798         2.609675
 H         1.549238        -0.899224         2.437088
 H         2.624355        -2.241900         0.410851
