19
Iteration:  1791
 C        -0.080348        -0.296905        -0.068915
 C         1.415005        -0.118457         0.010230
 O         2.007205         0.378780        -1.215971
 C         3.265648        -0.093460        -0.410475
 C         3.532596         1.012683         0.509456
 C         2.249921         0.699640         1.257027
 O         1.534512         1.823881         1.835755
 C         2.285066        -0.795922         1.912951
 C         2.391606        -1.189679         0.448322
 H        -0.500841        -0.595982         0.873956
 H        -0.431073         0.730907        -0.367252
 H        -0.152862        -1.103808        -0.772355
 H         4.027125        -0.515803        -1.109226
 H         4.447713         0.951818         1.034583
 H         3.357861         1.872355        -0.190531
 H         2.056493         2.565929         2.110784
 H         3.085553        -0.942181         2.543656
 H         1.263287        -0.780187         2.314206
 H         2.467466        -2.256186         0.216028
