19
Iteration:   404charge 0 multiplicity 1
 C        -0.092879         0.015744        -0.069187
 C         1.340072        -0.181414        -0.047742
 O         2.237652         0.187748        -1.275497
 C         3.268694        -0.181476        -0.397988
 C         3.363800         1.010383         0.579304
 C         2.124793         0.700574         1.211377
 O         1.556664         1.730383         1.952014
 C         2.330080        -0.674936         1.835907
 C         2.445970        -1.204009         0.467477
 H        -0.355415        -0.145569         1.025246
 H        -0.370432         1.062259        -0.478770
 H        -0.621796        -0.759597        -0.704663
 H         4.122073        -0.552477        -1.042174
 H         4.239091         1.055523         1.281359
 H         3.206490         1.920026        -0.059645
 H         1.552790         2.527401         1.417303
 H         3.203881        -0.608706         2.593256
 H         1.472004        -1.017473         2.463656
 H         2.486623        -2.219253         0.204455
