19
Iteration:  1602charge 0 multiplicity 1
 C        -0.139431        -0.192221        -0.174913
 C         1.375710        -0.141537        -0.026867
 O         2.125252         0.158711        -1.270612
 C         3.272345        -0.141545        -0.422691
 C         3.357060         1.058234         0.484143
 C         2.135579         0.756231         1.242935
 O         1.551278         1.828024         2.037619
 C         2.444711        -0.667293         1.946527
 C         2.442468        -1.232744         0.431778
 H        -0.533502        -0.642431         0.806296
 H        -0.406920         0.925829        -0.202752
 H        -0.573306        -0.582242        -1.145485
 H         4.189912        -0.435298        -0.933021
 H         4.258763         0.937771         1.219591
 H         3.473116         2.062586         0.033215
 H         1.824530         2.663507         1.528944
 H         3.401659        -0.825208         2.496683
 H         1.600999        -1.101832         2.475083
 H         2.283832        -2.284455         0.155693
