19
Iteration:  3858
 C        -0.115058        -0.396403        -0.012455
 C         1.366023        -0.239882        -0.025126
 O         1.986161        -0.002855        -1.248944
 C         3.226302        -0.216516        -0.490063
 C         3.356400         1.107491         0.365938
 C         2.174616         0.821556         1.267085
 O         1.613013         1.932692         1.899675
 C         2.585497        -0.388452         1.938898
 C         2.488665        -1.099897         0.516913
 H        -0.640995        -0.377715         0.969277
 H        -0.483141         0.570622        -0.425419
 H        -0.529884        -1.216436        -0.545638
 H         4.065799        -0.458723        -1.143792
 H         4.281005         1.017302         0.997026
 H         3.310756         1.954448        -0.333051
 H         0.736367         1.753586         2.270566
 H         3.407170        -0.449712         2.621299
 H         1.741268        -0.815726         2.497629
 H         2.546881        -2.129027         0.415429
