19
Iteration:   713
 C        -0.027011         0.083321         0.015368
 C         1.471985        -0.096143        -0.016839
 O         2.139758         0.141665        -1.275561
 C         3.376425        -0.291753        -0.376108
 C         3.434132         1.074899         0.384464
 C         2.181331         0.764014         1.198632
 O         1.409305         1.726090         1.917822
 C         2.392022        -0.664866         1.901360
 C         2.346733        -1.222014         0.450626
 H        -0.277418        -0.161634         1.103621
 H        -0.282851         1.141023        -0.091996
 H        -0.618002        -0.680847        -0.479685
 H         4.217645        -0.730153        -0.694504
 H         4.251990         1.125475         1.076276
 H         3.397884         1.959401        -0.243094
 H         0.533331         1.306686         1.940332
 H         3.177230        -0.789149         2.660573
 H         1.369810        -0.872867         2.347530
 H         2.350787        -2.173610        -0.117347
