19
Iteration:   184
 C        -0.104488        -0.082580         0.080871
 C         1.445615        -0.040821        -0.014768
 O         2.234115         0.059049        -1.390538
 C         3.361479        -0.202083        -0.425946
 C         3.439372         1.009802         0.590787
 C         2.054678         0.641981         1.202103
 O         1.503295         1.879064         1.849451
 C         2.313425        -0.636681         1.935436
 C         2.384913        -1.148639         0.342782
 H        -0.431607        -0.309171         1.107845
 H        -0.535180         0.891068        -0.233774
 H        -0.639125        -0.871393        -0.493726
 H         4.212700        -0.447261        -1.061276
 H         4.383205         0.985776         1.254659
 H         3.307232         2.092864         0.256283
 H         1.227768         1.569009         2.697796
 H         3.352240        -0.512172         2.488471
 H         1.494562        -1.079583         2.593251
 H         2.102834        -2.042813        -0.029713
