19
Iteration:   310charge 0 multiplicity 1
 C        -0.043755        -0.247383        -0.097209
 C         1.447933        -0.121469        -0.002407
 O         2.069091         0.172530        -1.276879
 C         3.302296        -0.140530        -0.512894
 C         3.468995         0.921378         0.597306
 C         2.078919         0.756058         1.281260
 O         1.631500         1.935048         1.877785
 C         2.307138        -0.633046         1.891581
 C         2.386506        -1.129737         0.443343
 H        -0.546715        -0.586211         0.793563
 H        -0.407964         0.753640        -0.302546
 H        -0.468143        -0.820601        -0.927528
 H         4.259410        -0.387413        -1.020912
 H         4.211975         0.611436         1.326557
 H         3.639778         1.934588         0.268143
 H         1.045134         1.748587         2.638586
 H         3.112497        -0.779606         2.556361
 H         1.385242        -1.025306         2.350859
 H         2.195852        -2.245672        -0.043024
