19
Iteration:   856charge 0 multiplicity 1
 C        -0.087193        -0.084757        -0.053479
 C         1.383589        -0.196170        -0.024247
 O         2.076818         0.223216        -1.159417
 C         3.282742        -0.171389        -0.508400
 C         3.419655         1.054316         0.448972
 C         2.156422         0.708713         1.181207
 O         1.563405         1.761244         1.850367
 C         2.442904        -0.647191         1.991967
 C         2.466780        -1.203345         0.530792
 H        -0.657299        -0.331090         0.934987
 H        -0.312405         0.998888        -0.239626
 H        -0.544131        -0.581929        -0.937525
 H         4.006128        -0.487224        -1.132505
 H         4.259778         1.065951         1.118558
 H         3.382354         1.946058        -0.201265
 H         0.629416         1.849421         1.720756
 H         3.312857        -0.710168         2.736845
 H         1.466486        -1.003021         2.446393
 H         2.449515        -2.243394         0.171290
