19
Iteration:  3169charge 0 multiplicity 1
 C        -0.129952        -0.401175        -0.040973
 C         1.321919        -0.194350         0.167510
 O         1.981883         0.147375        -1.152100
 C         3.266067        -0.173476        -0.522138
 C         3.358693         1.153245         0.375820
 C         2.166959         0.737319         1.211784
 O         1.629380         1.974097         1.836354
 C         2.494665        -0.585716         1.907694
 C         2.498000        -1.203703         0.515517
 H        -0.680258        -0.504507         0.898724
 H        -0.679630         0.378149        -0.675756
 H        -0.314281        -1.430597        -0.503087
 H         4.145704        -0.533166        -1.109806
 H         4.226186         1.240640         1.105394
 H         3.172677         2.006642        -0.334257
 H         2.107922         2.706252         1.452207
 H         3.360465        -0.719322         2.670041
 H         1.655376        -1.022581         2.482666
 H         2.513375        -2.267214         0.161335
