19
Iteration:  2423charge 0 multiplicity 1
 C        -0.110527        -0.164865         0.082468
 C         1.384776        -0.141227         0.059984
 O         2.008978         0.191633        -1.189589
 C         3.290713        -0.200971        -0.478781
 C         3.471411         0.969228         0.432391
 C         2.113249         0.754076         1.287412
 O         1.507942         1.887099         1.732629
 C         2.529131        -0.657717         1.881765
 C         2.453217        -1.124005         0.412699
 H        -0.489337        -0.496175         1.031184
 H        -0.490833         0.899422        -0.088038
 H        -0.593334        -0.824258        -0.680998
 H         4.005727        -0.746640        -1.056373
 H         4.346742         1.022017         1.148204
 H         3.600420         1.946317        -0.070999
 H         0.822290         1.584204         2.400944
 H         3.534395        -0.735704         2.342441
 H         1.744125        -1.156483         2.488667
 H         2.670523        -2.179877         0.126520
