19
Iteration:  3026
 C        -0.085753        -0.338871         0.156074
 C         1.418532        -0.097894         0.014881
 O         2.036188         0.095021        -1.242491
 C         3.309238        -0.253831        -0.443663
 C         3.427638         1.076312         0.255382
 C         2.160097         0.808660         1.156877
 O         1.530029         1.806685         1.954064
 C         2.434892        -0.482748         1.917568
 C         2.420208        -1.095019         0.473898
 H        -0.531982        -0.590429         1.180378
 H        -0.515626         0.550086        -0.320402
 H        -0.251799        -1.122806        -0.564964
 H         4.076799        -0.805677        -1.023884
 H         4.247301         1.115683         1.048780
 H         3.319598         1.976391        -0.404291
 H         1.396048         2.416859         1.229055
 H         3.216759        -0.653838         2.710334
 H         1.582872        -0.805009         2.599098
 H         2.389715        -2.128277         0.262975
