19
Iteration:  4296
 C        -0.098902        -0.384989         0.107480
 C         1.366121        -0.237359         0.046155
 O         1.953759         0.038035        -1.294922
 C         3.309073        -0.186563        -0.476660
 C         3.379650         1.103398         0.399979
 C         2.115190         0.809779         1.198338
 O         1.523169         1.876040         1.858689
 C         2.520959        -0.486645         1.905592
 C         2.525572        -1.101817         0.480957
 H        -0.565914        -0.243856         1.138340
 H        -0.597549         0.542713        -0.453104
 H        -0.432892        -1.272516        -0.397137
 H         4.228198        -0.445444        -1.053286
 H         4.127418         1.272101         1.231406
 H         3.348805         1.944408        -0.256367
 H         2.225183         2.511580         2.002612
 H         3.545843        -0.335151         2.347910
 H         1.641046        -0.883161         2.454600
 H         2.435864        -2.132806         0.489410
