19
Iteration:  4895
 C        -0.089769        -0.321263         0.042335
 C         1.396064        -0.187108         0.035837
 O         1.958332         0.060072        -1.183640
 C         3.227438        -0.254613        -0.469834
 C         3.371130         1.174449         0.357192
 C         2.184933         0.801738         1.090311
 O         1.516664         1.797084         1.963830
 C         2.645410        -0.458729         1.905860
 C         2.417513        -1.163574         0.539851
 H        -0.533781        -0.196224         1.024261
 H        -0.550382         0.411283        -0.621700
 H        -0.439262        -1.273117        -0.431351
 H         4.164927        -0.400450        -1.070259
 H         4.335310         1.363778         0.855000
 H         3.318053         2.022064        -0.309347
 H         1.226550         2.390994         1.216351
 H         3.726050        -0.451659         2.317066
 H         1.911495        -0.740026         2.717917
 H         2.409989        -2.160145         0.281101
