19
Iteration:  2149
 C        -0.084969        -0.358949        -0.025357
 C         1.394007        -0.056915         0.044420
 O         2.095213         0.274233        -1.170718
 C         3.300381        -0.093392        -0.476207
 C         3.433998         1.023713         0.425479
 C         2.172750         0.727121         1.279073
 O         1.712706         1.886999         1.897661
 C         2.313369        -0.687892         1.851849
 C         2.348508        -1.164728         0.376955
 H        -0.705194        -0.241298         0.885196
 H        -0.841483         0.296625        -0.709589
 H        -0.252959        -1.421955        -0.237277
 H         4.237433        -0.437546        -0.895796
 H         4.369203         1.025251         1.055689
 H         3.444794         2.060856        -0.026360
 H         0.772902         1.542996         2.034651
 H         2.965192        -1.040818         2.652540
 H         1.313254        -1.017514         2.239379
 H         2.254248        -2.220449         0.127750
