19
Iteration:  2581
 C        -0.063105        -0.192956         0.157070
 C         1.378275        -0.073706         0.095205
 O         2.083730         0.215235        -1.237187
 C         3.324187        -0.320122        -0.513973
 C         3.449308         1.040343         0.289776
 C         2.150907         0.803841         1.139973
 O         1.446802         1.807779         1.846307
 C         2.531397        -0.602186         1.969979
 C         2.419694        -1.156642         0.432903
 H        -0.377589        -0.033317         1.230566
 H        -0.496579         0.553967        -0.429002
 H        -0.532405        -1.126938         0.042725
 H         4.187511        -0.790761        -1.041073
 H         4.205344         1.060856         1.109063
 H         3.414897         2.002117        -0.278152
 H         0.489129         1.504544         2.048188
 H         3.514880        -0.697656         2.467373
 H         1.646946        -0.879116         2.510856
 H         2.183132        -2.159725         0.207193
