19
Iteration:  4222
 C        -0.149284        -0.291670         0.153353
 C         1.365871        -0.151172         0.066486
 O         2.054540         0.100065        -1.274801
 C         3.340053        -0.235144        -0.545215
 C         3.387778         1.058166         0.380900
 C         2.093653         0.795469         1.164818
 O         1.508341         1.914943         1.847740
 C         2.580024        -0.512352         1.943209
 C         2.540055        -1.169251         0.565371
 H        -0.530218        -0.532117         1.123926
 H        -0.583119         0.614558        -0.334605
 H        -0.609130        -0.938254        -0.547144
 H         4.151813        -0.599866        -1.254321
 H         4.275314         1.045628         0.962113
 H         3.154768         1.949512        -0.265172
 H         0.518192         1.735765         1.693084
 H         3.487995        -0.446282         2.439813
 H         1.675076        -0.870793         2.364792
 H         2.568511        -2.343160         0.376946
