19
Iteration:   237
 C        -0.092507        -0.070009        -0.184424
 C         1.384019        -0.040145         0.072476
 O         2.058824         0.163911        -1.240008
 C         3.239645        -0.236680        -0.480491
 C         3.459541         0.906192         0.527887
 C         2.155298         0.702705         1.254253
 O         1.510931         1.782831         1.883577
 C         2.552712        -0.611365         1.959960
 C         2.413636        -1.069251         0.502010
 H        -0.798675        -0.468713         0.593101
 H        -0.423439         0.964507        -0.556713
 H        -0.299487        -0.885417        -0.951310
 H         4.124627        -0.407134        -1.084978
 H         4.311758         0.577908         1.186898
 H         3.570629         1.913471         0.103945
 H         0.582037         1.635527         1.834609
 H         3.593435        -0.537211         2.439907
 H         1.651919        -1.075641         2.474459
 H         2.233104        -2.060156         0.318905
