19
Iteration:  2089charge 0 multiplicity 1
 C        -0.119937        -0.149332        -0.030904
 C         1.431877        -0.072323         0.043031
 O         2.014804         0.202199        -1.203363
 C         3.251347        -0.174115        -0.433849
 C         3.507191         1.093046         0.461169
 C         2.237532         0.730459         1.221777
 O         1.554853         1.782965         1.863763
 C         2.361176        -0.678390         1.916245
 C         2.444455        -1.199677         0.457126
 H        -0.474192        -0.720196         0.851178
 H        -0.487348         0.806670        -0.127201
 H        -0.294531        -0.597665        -1.032214
 H         4.081149        -0.619260        -0.998592
 H         4.394471         1.237089         1.085201
 H         3.312438         1.869616        -0.263023
 H         0.614213         1.424898         1.926042
 H         3.312140        -0.759493         2.455016
 H         1.506314        -1.035691         2.459966
 H         2.567376        -2.180061        -0.061217
