19
Iteration:  4839
 C        -0.098138        -0.338327         0.120821
 C         1.387356        -0.193025         0.085664
 O         2.012369         0.116385        -1.227748
 C         3.262501        -0.182030        -0.517700
 C         3.408452         1.149234         0.403068
 C         2.184960         0.750349         1.143375
 O         1.553842         1.873760         1.742730
 C         2.515930        -0.482514         1.903119
 C         2.416386        -1.161873         0.531400
 H        -0.441925        -0.725500         1.143182
 H        -0.638383         0.593596         0.097684
 H        -0.333510        -1.236433        -0.450631
 H         4.265932        -0.498149        -1.068105
 H         4.461755         1.307831         0.832421
 H         3.140740         2.003160        -0.180428
 H         0.920211         1.581212         2.473702
 H         3.582634        -0.448517         2.362872
 H         1.660038        -0.914905         2.536120
 H         2.400510        -2.221852         0.437734
