19
Iteration:  2211
 C        -0.165908         0.023710        -0.129532
 C         1.343660        -0.084386         0.059347
 O         2.027847         0.130933        -1.259521
 C         3.350038        -0.263839        -0.417420
 C         3.470639         1.123734         0.405510
 C         2.190837         0.717207         1.188655
 O         1.410012         1.709340         1.935908
 C         2.592626        -0.655421         1.931362
 C         2.421377        -1.169236         0.456452
 H        -0.642879        -0.258287         0.874190
 H        -0.238445         1.057891        -0.345046
 H        -0.387476        -0.801003        -0.841993
 H         4.178772        -0.801657        -0.963447
 H         4.355655         1.418174         1.048392
 H         3.360306         2.085490        -0.211738
 H         1.192728         1.324607         2.837132
 H         3.611843        -0.607771         2.355124
 H         1.811639        -1.138437         2.514192
 H         2.313940        -2.246462         0.445471
