19
Iteration:   695charge 0 multiplicity 1
 C        -0.063188         0.004716        -0.021441
 C         1.413026        -0.063837         0.001368
 O         2.140312         0.075265        -1.275997
 C         3.279980        -0.169418        -0.507412
 C         3.443696         0.993443         0.556377
 C         2.099880         0.683688         1.267005
 O         1.521945         1.791765         1.841242
 C         2.316226        -0.639711         1.920686
 C         2.470782        -1.161693         0.454979
 H        -0.428345        -0.233021         0.960388
 H        -0.283415         1.046710        -0.217089
 H        -0.347305        -0.538219        -0.914608
 H         4.230250        -0.429616        -1.227439
 H         4.385098         1.038155         1.135172
 H         3.410400         1.901592        -0.113371
 H         0.820023         1.469072         2.444993
 H         3.212663        -0.749535         2.535663
 H         1.507629        -1.128135         2.389442
 H         2.381140        -2.237959         0.371938
