19
Iteration:  2546charge 0 multiplicity 1
 C        -0.140490        -0.042097         0.034667
 C         1.369258        -0.202829         0.066070
 O         1.930169         0.039361        -1.269046
 C         3.291345        -0.188478        -0.440532
 C         3.420736         1.119882         0.398068
 C         2.150823         0.695814         1.168262
 O         1.489562         1.847598         1.798775
 C         2.584537        -0.648446         1.923015
 C         2.566001        -1.137826         0.499478
 H        -0.354052         0.152798         1.115797
 H        -0.411129         0.883078        -0.399550
 H        -0.672119        -0.867661        -0.453377
 H         4.161611        -0.472268        -1.087800
 H         4.255849         1.073368         1.184631
 H         3.478052         2.160376        -0.036064
 H         1.060990         1.372848         2.578631
 H         3.467002        -0.698986         2.527900
 H         1.816902        -0.989276         2.596979
 H         2.576699        -2.181865         0.170214
