19
Iteration:  3857charge 0 multiplicity 1
 C        -0.118671        -0.394803        -0.014621
 C         1.362867        -0.248513        -0.023131
 O         1.985891         0.000294        -1.241613
 C         3.225529        -0.213864        -0.483947
 C         3.356931         1.113030         0.362520
 C         2.173304         0.819049         1.265893
 O         1.615176         1.937771         1.901909
 C         2.584229        -0.391299         1.943986
 C         2.495864        -1.102124         0.513351
 H        -0.641099        -0.364534         0.930391
 H        -0.494488         0.543240        -0.414251
 H        -0.522256        -1.232987        -0.591979
 H         4.059496        -0.466157        -1.164989
 H         4.267328         1.010298         0.954282
 H         3.324009         1.953288        -0.353532
 H         0.752956         1.760159         2.255956
 H         3.441155        -0.474865         2.627144
 H         1.719684        -0.797900         2.476248
 H         2.526875        -2.136023         0.418126
