19
Iteration:   208charge 0 multiplicity 1
 C        -0.056043         0.005890        -0.052512
 C         1.424161        -0.171404        -0.012996
 O         2.113879         0.235075        -1.121947
 C         3.278281        -0.222222        -0.373467
 C         3.430205         1.050691         0.411763
 C         2.153872         0.687408         1.191614
 O         1.505391         1.832660         1.789832
 C         2.345885        -0.726641         1.849840
 C         2.473158        -1.230583         0.520995
 H        -0.433897        -0.175903         0.952357
 H        -0.295576         0.989418        -0.375493
 H        -0.593576        -0.719727        -0.618018
 H         4.161158        -0.402377        -1.032655
 H         4.394620         1.117097         0.958643
 H         3.294442         1.985880        -0.180291
 H         0.889299         1.414136         2.452671
 H         3.130353        -0.874458         2.622258
 H         1.385097        -1.015045         2.217961
 H         2.576639        -2.338577         0.362869
