19
Iteration:  3143
 C        -0.127053        -0.450082        -0.039473
 C         1.314567        -0.188116        -0.008690
 O         1.999410         0.059080        -1.338977
 C         3.149279        -0.219567        -0.492508
 C         3.460742         1.057211         0.429026
 C         2.184638         0.856199         1.228528
 O         1.562386         1.902548         1.963893
 C         2.557511        -0.424914         1.943722
 C         2.433938        -1.084418         0.536766
 H        -0.558008        -0.619848         1.022824
 H        -0.743679         0.353155        -0.425233
 H        -0.371223        -1.327148        -0.597699
 H         4.052180        -0.613712        -1.017376
 H         4.350138         0.901929         1.032697
 H         3.576528         1.902373        -0.246086
 H         2.150723         2.647316         2.141598
 H         3.490909        -0.374550         2.403665
 H         1.936241        -0.911261         2.730462
 H         2.441454        -2.118752         0.257120
