19
Iteration:  4560charge 0 multiplicity 1
 C        -0.122380        -0.254935         0.078979
 C         1.406316        -0.156281         0.078178
 O         2.000077         0.035909        -1.166110
 C         3.234928        -0.185635        -0.544821
 C         3.376415         1.137267         0.314651
 C         2.181071         0.780915         1.219628
 O         1.493962         1.862194         1.728467
 C         2.541971        -0.576982         1.967370
 C         2.577193        -1.130482         0.559595
 H        -0.558608        -0.785565         0.866825
 H        -0.601981         0.777075         0.136274
 H        -0.341739        -0.813387        -0.881372
 H         4.016365        -0.528473        -1.291228
 H         4.362022         1.408469         0.644721
 H         3.046180         2.050423        -0.284545
 H         1.155686         1.700766         2.626050
 H         3.432476        -0.498917         2.686308
 H         1.586214        -1.041286         2.492740
 H         2.660115        -2.226218         0.391114
