19
Iteration:  3324charge 0 multiplicity 1
 C        -0.115086        -0.446051         0.091733
 C         1.353227        -0.002366         0.142712
 O         2.052442         0.122526        -1.177242
 C         3.253064        -0.236734        -0.471612
 C         3.516919         1.081542         0.256767
 C         2.156776         0.848715         1.158163
 O         1.535401         1.861316         1.875664
 C         2.379722        -0.571864         1.829848
 C         2.478653        -1.170653         0.531780
 H        -0.295528        -0.867983         1.024913
 H        -0.777995         0.385428        -0.209226
 H        -0.096999        -1.306926        -0.599768
 H         4.049948        -0.620960        -1.053924
 H         4.331350         1.445515         0.869717
 H         3.372340         1.877044        -0.503860
 H         1.914335         2.739743         2.051467
 H         3.230216        -0.547253         2.580514
 H         1.484562        -0.922277         2.311184
 H         2.107923        -2.174425         0.355048
