19
Iteration:  1194
 C        -0.067180        -0.163164        -0.030638
 C         1.366426        -0.074950        -0.032371
 O         2.111588         0.204939        -1.259059
 C         3.341830        -0.225173        -0.368341
 C         3.458763         0.965257         0.574395
 C         2.138556         0.774785         1.255513
 O         1.526252         1.892636         1.831162
 C         2.458827        -0.648754         1.847885
 C         2.322563        -1.218684         0.427777
 H        -0.595651        -0.190023         0.975366
 H        -0.514201         0.800465        -0.418488
 H        -0.473992        -1.043687        -0.616168
 H         4.145394        -0.406994        -1.036180
 H         4.247458         1.053340         1.375544
 H         3.561151         1.757819        -0.231514
 H         0.709278         1.542149         2.250635
 H         3.510316        -0.794571         2.184581
 H         1.764079        -1.128537         2.582916
 H         2.214286        -2.275945         0.157835
