19
Iteration:    56charge 0 multiplicity 1
 C         0.016410        -0.111155        -0.038983
 C         1.516341        -0.003209         0.094482
 O         2.065257         0.153054        -1.180699
 C         3.377065        -0.277518        -0.424170
 C         3.529823         1.038150         0.402031
 C         2.182275         0.802059         1.194969
 O         1.469310         1.845430         1.799748
 C         2.225110        -0.698925         1.915635
 C         2.370328        -1.194938         0.492541
 H        -0.578753        -0.291184         0.858319
 H        -0.407141         0.792712        -0.476090
 H        -0.183916        -0.942544        -0.720094
 H         4.180278        -0.693573        -1.037677
 H         4.422195         1.182321         0.971874
 H         3.271006         1.845828        -0.280359
 H         0.936610         1.364175         2.490144
 H         2.828292        -1.029884         2.735254
 H         1.207912        -0.819920         2.217413
 H         2.176689        -2.250610         0.169969
