19
Iteration:  3881charge 0 multiplicity 1
 C        -0.067550        -0.282476         0.183067
 C         1.399043        -0.099712         0.023191
 O         2.082651        -0.022923        -1.294383
 C         3.283709        -0.191325        -0.466720
 C         3.400703         1.152837         0.340511
 C         2.076325         0.760697         1.110719
 O         1.490744         1.886228         1.833743
 C         2.523251        -0.493994         1.940502
 C         2.478439        -1.126273         0.502519
 H        -0.514264        -0.290279         1.221356
 H        -0.798742         0.501053        -0.181194
 H        -0.255293        -1.206964        -0.218094
 H         4.070457        -0.526447        -1.114546
 H         4.298604         0.941207         1.000501
 H         3.447204         1.947413        -0.395232
 H         0.916510         1.535070         2.520991
 H         3.476883        -0.573792         2.417579
 H         1.777347        -0.848729         2.670742
 H         2.288983        -2.145071         0.303969
