19
Iteration:  3441charge 0 multiplicity 1
 C        -0.224982        -0.253782         0.043019
 C         1.342290        -0.119284        -0.056116
 O         2.043985         0.038770        -1.313334
 C         3.314135        -0.187945        -0.441289
 C         3.446226         1.034316         0.374651
 C         2.126043         0.765263         1.203593
 O         1.531294         1.876670         1.968413
 C         2.510024        -0.542527         1.929933
 C         2.527165        -1.106195         0.519390
 H        -0.365986        -0.429891         1.069016
 H        -0.735057         0.678427        -0.223295
 H        -0.676094        -1.255792        -0.344469
 H         4.021726        -0.756706        -0.973725
 H         4.342292         1.125656         1.004483
 H         3.359450         2.018145        -0.093842
 H         1.173150         2.367216         1.243533
 H         3.568734        -0.553667         2.376781
 H         1.793796        -0.956603         2.585059
 H         2.827542        -2.182877         0.467883
