19
Iteration:  4044charge 0 multiplicity 1
 C        -0.036884        -0.331802         0.052856
 C         1.392290        -0.080701         0.099741
 O         2.025509         0.144437        -1.138046
 C         3.266353        -0.231854        -0.470705
 C         3.413410         1.027140         0.311718
 C         2.119974         0.802709         1.149536
 O         1.518352         1.807585         1.818098
 C         2.511200        -0.549739         1.921295
 C         2.449988        -1.092029         0.516035
 H        -0.550433        -0.218608         1.069715
 H        -0.596178         0.551280        -0.420376
 H        -0.070936        -1.263667        -0.483958
 H         4.053625        -0.573669        -1.143747
 H         4.265938         1.103701         1.039643
 H         3.350026         1.869919        -0.331722
 H         0.776247         2.201824         1.279057
 H         3.431619        -0.356824         2.597204
 H         1.751812        -1.149492         2.574049
 H         2.497698        -2.141635         0.448208
