19
Iteration:  1336charge 0 multiplicity 1
 C        -0.110703        -0.333800        -0.122928
 C         1.386377        -0.072303         0.004775
 O         2.039674         0.163832        -1.221676
 C         3.282937        -0.138193        -0.432573
 C         3.516475         0.983397         0.505633
 C         2.109333         0.781082         1.229305
 O         1.565663         1.907258         1.883348
 C         2.399274        -0.643174         1.859289
 C         2.408906        -1.098912         0.493902
 H        -0.705923        -0.350972         0.787200
 H        -0.600306         0.503474        -0.553794
 H        -0.283392        -1.277158        -0.677007
 H         4.049486        -0.467612        -1.089335
 H         4.348465         0.634048         1.181394
 H         3.672577         2.028167         0.163152
 H         1.865835         1.815460         2.815598
 H         3.283515        -0.744445         2.433431
 H         1.492636        -1.111255         2.265760
 H         2.285107        -2.114881         0.106706
