19
Iteration:  1546charge 0 multiplicity 1
 C        -0.093183        -0.038393        -0.051275
 C         1.422053        -0.134445        -0.017393
 O         2.060256         0.164112        -1.266064
 C         3.321459        -0.228575        -0.508595
 C         3.583266         0.977422         0.546724
 C         2.193649         0.789386         1.232858
 O         1.349672         1.666163         2.020965
 C         2.456727        -0.507202         1.849436
 C         2.395561        -1.163406         0.400592
 H        -0.484118         0.106035         1.012053
 H        -0.197344         0.951894        -0.602397
 H        -0.625718        -0.968673        -0.585637
 H         4.057201        -0.700593        -1.097903
 H         4.431429         0.820024         1.383044
 H         3.669987         1.988147         0.058451
 H         0.572157         1.728339         1.474016
 H         3.443010        -0.532287         2.414127
 H         1.757070        -0.996055         2.520115
 H         2.467001        -2.241543         0.390913
