19
Iteration:  3254charge 0 multiplicity 1
 C        -0.040863        -0.198069         0.073346
 C         1.462144        -0.207801         0.076830
 O         2.001834         0.113367        -1.225419
 C         3.245058        -0.222315        -0.487401
 C         3.343432         1.138021         0.335175
 C         2.183796         0.786931         1.150959
 O         1.446309         1.765778         1.871512
 C         2.483881        -0.522885         1.938809
 C         2.494994        -1.237969         0.584447
 H        -0.364648        -0.396020         1.130428
 H        -0.038428         0.863186        -0.068647
 H        -0.436508        -0.802211        -0.758940
 H         4.067651        -0.476987        -1.218250
 H         4.368561         1.440664         0.609894
 H         3.123653         1.915214        -0.391730
 H         1.459255         2.507221         1.232386
 H         3.424568        -0.558765         2.473518
 H         1.667078        -0.885389         2.610302
 H         2.488997        -2.334189         0.455582
