19
Iteration:  3696
 C        -0.078105        -0.272889        -0.018737
 C         1.430645        -0.166289         0.098756
 O         1.955146         0.090808        -1.234926
 C         3.188469        -0.237675        -0.513769
 C         3.401337         1.062494         0.272423
 C         2.172034         0.808979         1.245013
 O         1.527837         1.873878         1.908039
 C         2.564954        -0.447392         1.932884
 C         2.508251        -1.157888         0.556080
 H        -0.566972        -0.744578         0.863102
 H        -0.448953         0.705048        -0.408847
 H        -0.135997        -1.056535        -0.682490
 H         4.064243        -0.618019        -1.087486
 H         4.419167         1.072646         0.747965
 H         3.244680         1.803516        -0.528073
 H         0.835429         1.627172         2.512782
 H         3.468728        -0.536161         2.511637
 H         1.726423        -0.801880         2.602899
 H         2.419958        -2.172966         0.299989
