19
Iteration:  1189
 C        -0.095719        -0.201378        -0.064162
 C         1.377195        -0.065140        -0.029092
 O         2.125441         0.206955        -1.210158
 C         3.301764        -0.242170        -0.401237
 C         3.434584         0.919586         0.562538
 C         2.121395         0.767648         1.233058
 O         1.544139         1.884161         1.859936
 C         2.457341        -0.587000         1.847284
 C         2.352954        -1.174834         0.417021
 H        -0.516511        -0.209691         0.910268
 H        -0.468078         0.708634        -0.490052
 H        -0.417676        -0.986101        -0.705795
 H         4.115572        -0.623296        -1.123028
 H         4.155562         1.059513         1.345661
 H         3.693341         1.779931        -0.048349
 H         0.814385         1.611936         2.470820
 H         3.471383        -0.767925         2.207701
 H         1.780560        -1.006227         2.565578
 H         2.273117        -2.238346         0.155386
