19
Iteration:  3842
 C        -0.191949        -0.396888        -0.115628
 C         1.336751        -0.255043         0.139223
 O         1.962299         0.054209        -1.144627
 C         3.249336        -0.133340        -0.482746
 C         3.403176         1.144228         0.243756
 C         2.139868         0.872362         1.147913
 O         1.682436         2.007458         1.901289
 C         2.507232        -0.584093         1.953978
 C         2.553493        -1.179330         0.611589
 H        -0.655173        -0.756789         0.790095
 H        -0.549900         0.477822        -0.636484
 H        -0.294420        -1.308541        -0.811363
 H         4.075222        -0.542006        -1.093449
 H         4.303159         1.345142         0.779576
 H         3.202820         2.036282        -0.367059
 H         0.772561         1.731179         2.227632
 H         3.508291        -0.566693         2.523853
 H         1.733920        -0.928169         2.689987
 H         2.622912        -2.302264         0.291026
