19
Iteration:  1449
 C        -0.126741        -0.285443        -0.209037
 C         1.356654        -0.028855         0.016839
 O         2.090168         0.224815        -1.205449
 C         3.296503        -0.294498        -0.456304
 C         3.486870         1.092673         0.429396
 C         2.220284         0.800158         1.249345
 O         1.486576         1.750586         1.959603
 C         2.457170        -0.571290         1.899817
 C         2.264790        -1.131395         0.520311
 H        -0.403045        -0.863880         0.688771
 H        -0.617264         0.665420        -0.103831
 H        -0.086947        -0.927299        -1.079269
 H         4.021484        -0.743361        -1.089440
 H         4.268099         1.014484         1.217184
 H         3.560345         1.981646        -0.204531
 H         2.094686         2.128826         2.603165
 H         3.426556        -1.016016         2.220014
 H         1.698406        -0.894606         2.577917
 H         2.341259        -2.141864         0.172280
