19
Iteration:  4813
 C        -0.082400        -0.354136         0.152091
 C         1.381460        -0.094352         0.110678
 O         2.030220         0.111358        -1.239248
 C         3.287033        -0.267354        -0.515598
 C         3.499041         1.038001         0.341839
 C         2.039570         0.815420         1.142148
 O         1.384225         1.952623         1.795816
 C         2.550483        -0.555716         1.896111
 C         2.516536        -1.094185         0.480889
 H        -0.203137        -0.902636         1.092264
 H        -0.653167         0.520130         0.363758
 H        -0.381205        -1.110764        -0.532130
 H         4.114719        -0.668862        -1.006865
 H         4.360791         1.026140         0.961990
 H         3.533435         1.810666        -0.450060
 H         1.610329         2.013219         2.782295
 H         3.484265        -0.496457         2.375592
 H         1.762012        -1.046053         2.458926
 H         2.437272        -2.231874         0.212552
