19
Iteration:  2592charge 0 multiplicity 1
 C        -0.079481        -0.274059         0.141185
 C         1.452550        -0.072008         0.034415
 O         2.003168         0.232525        -1.221251
 C         3.273611        -0.255413        -0.449205
 C         3.462385         1.046388         0.323813
 C         2.139010         0.801508         1.160671
 O         1.542785         1.849737         1.850065
 C         2.473197        -0.624780         1.945685
 C         2.426571        -1.174523         0.484525
 H        -0.480636        -0.111546         1.170032
 H        -0.559855         0.429972        -0.481489
 H        -0.247712        -1.187275        -0.329486
 H         3.988114        -0.713847        -1.159975
 H         4.417586         1.177781         0.859922
 H         3.473983         1.772909        -0.522732
 H         0.573028         1.696628         1.884969
 H         3.290045        -0.757543         2.674940
 H         1.629266        -1.030196         2.481342
 H         2.416906        -2.170184         0.141630
