19
Iteration:   902charge 0 multiplicity 1
 C        -0.078882         0.019582        -0.013746
 C         1.394321        -0.074227         0.046576
 O         2.116593         0.146204        -1.267251
 C         3.290274        -0.216784        -0.431696
 C         3.544086         1.020097         0.472742
 C         2.124544         0.769212         1.184882
 O         1.348894         1.743146         1.843299
 C         2.543626        -0.685509         1.915487
 C         2.405561        -1.228799         0.508581
 H        -0.298784        -0.069157         1.080725
 H        -0.502666         1.001323        -0.314678
 H        -0.704588        -0.763025        -0.561811
 H         4.157031        -0.473148        -1.077601
 H         4.360957         0.779240         1.182190
 H         3.679579         1.991142        -0.036546
 H         0.431359         1.789049         1.606550
 H         3.619372        -0.746676         2.307152
 H         1.813378        -0.937833         2.668119
 H         2.320459        -2.266427         0.205274
