19
Iteration:  2376
 C        -0.097155        -0.028170        -0.015050
 C         1.401345        -0.131063         0.028607
 O         2.090612         0.033353        -1.201501
 C         3.262915        -0.171041        -0.376089
 C         3.406369         1.129060         0.275720
 C         2.186084         0.719123         1.213315
 O         1.517795         1.726259         1.960347
 C         2.453367        -0.591889         1.934641
 C         2.449167        -1.171883         0.437111
 H        -0.677968         0.167560         0.927367
 H        -0.335194         0.926645        -0.608096
 H        -0.671115        -0.819448        -0.451055
 H         4.068400        -0.501465        -1.014429
 H         4.471328         1.354045         0.483614
 H         3.251533         1.950190        -0.439780
 H         1.186919         1.110086         2.636039
 H         3.421322        -0.587050         2.493838
 H         1.482521        -0.909464         2.354772
 H         2.333451        -2.121366        -0.025140
