19
Iteration:  3415
 C        -0.036704        -0.168767         0.028671
 C         1.455756        -0.140612         0.141623
 O         1.993428         0.045258        -1.213712
 C         3.291659        -0.209750        -0.515492
 C         3.404359         1.053645         0.294625
 C         2.196760         0.829307         1.058001
 O         1.440114         1.732450         1.990832
 C         2.500184        -0.436785         1.929539
 C         2.475533        -1.196843         0.511527
 H        -0.522466        -0.424407         1.033566
 H        -0.263263         0.803579        -0.379131
 H        -0.436259        -0.966354        -0.484564
 H         4.109748        -0.653617        -1.201375
 H         4.192724         1.017310         1.061590
 H         3.462984         1.983165        -0.297512
 H         0.813708         2.132028         1.412655
 H         3.385645        -0.497267         2.522313
 H         1.598898        -0.572311         2.677555
 H         2.278625        -2.254366         0.314907
