19
Iteration:  2285
 C        -0.051698        -0.357995         0.082579
 C         1.433544        -0.027594        -0.007855
 O         2.068842         0.307446        -1.220307
 C         3.357210        -0.161480        -0.563010
 C         3.427194         0.952993         0.478532
 C         2.125110         0.759875         1.208943
 O         1.651574         1.924948         1.857482
 C         2.343064        -0.671512         1.931213
 C         2.313368        -1.200639         0.445636
 H        -0.389518        -1.064491         0.899177
 H        -0.638512         0.518335         0.127973
 H        -0.192902        -0.909220        -0.906270
 H         4.133907        -0.620962        -1.259770
 H         4.232844         0.822683         1.139050
 H         3.484699         2.010503         0.214237
 H         0.717773         1.973882         1.993164
 H         3.310689        -0.934526         2.466310
 H         1.452645        -1.005836         2.529490
 H         2.003634        -2.238044         0.158205
