19
Iteration:   885
 C        -0.099137         0.045800         0.063072
 C         1.401038        -0.098882         0.043381
 O         2.102887         0.062592        -1.199741
 C         3.315060        -0.255152        -0.443886
 C         3.382565         1.040513         0.587634
 C         2.122500         0.742498         1.260714
 O         1.377792         1.839825         1.785158
 C         2.642698        -0.762324         1.863386
 C         2.430376        -1.120389         0.395974
 H        -0.682653         0.033056         0.973564
 H        -0.260187         1.036252        -0.434878
 H        -0.362773        -0.489694        -0.819508
 H         4.221114        -0.771641        -0.984713
 H         4.203684         1.084469         1.327984
 H         3.317029         1.837904        -0.149572
 H         0.598095         1.850525         1.206798
 H         3.597922        -0.746759         2.291816
 H         2.035652        -1.452563         2.495717
 H         2.305835        -2.147353        -0.038600
