19
Iteration:   282
 C        -0.139452        -0.271848        -0.093478
 C         1.380614        -0.045401        -0.036840
 O         2.147029         0.218384        -1.216180
 C         3.305011        -0.183209        -0.424723
 C         3.446519         1.020573         0.426564
 C         2.096301         0.758277         1.262454
 O         1.757095         1.811447         1.971576
 C         2.201282        -0.614844         1.851429
 C         2.457689        -1.186662         0.489006
 H        -0.542870        -0.776287         0.827332
 H        -0.657232         0.744388        -0.241991
 H        -0.439242        -0.983225        -0.905110
 H         4.236305        -0.548343        -0.850084
 H         4.330470         1.109135         1.107913
 H         3.343119         1.951738        -0.182394
 H         0.810516         1.854704         1.945916
 H         2.883945        -0.822107         2.765300
 H         1.121043        -0.813802         2.075112
 H         2.494293        -2.132015         0.154027
