19
Iteration:  1118
 C        -0.158597        -0.242255        -0.218618
 C         1.284298        -0.073533        -0.077754
 O         2.165402         0.165141        -1.277728
 C         3.373163        -0.285780        -0.411510
 C         3.351409         0.962591         0.542537
 C         2.058762         0.753907         1.197322
 O         1.684479         1.933765         1.990031
 C         2.398828        -0.612160         1.906054
 C         2.364132        -1.097716         0.498405
 H        -0.580689        -0.643960         0.802487
 H        -0.894128         0.619930        -0.341051
 H        -0.463641        -0.982028        -1.039107
 H         4.113327        -0.730351        -1.005252
 H         4.193651         1.101480         1.220164
 H         3.396439         1.943433         0.047011
 H         2.038696         1.600452         2.872039
 H         3.463037        -0.707315         2.363174
 H         1.678250        -0.729358         2.758752
 H         2.401666        -2.128602         0.154344
