19
Iteration:  1104
 C        -0.114375        -0.190200        -0.147884
 C         1.394505        -0.082764        -0.035434
 O         2.142124         0.193409        -1.222476
 C         3.240681        -0.246330        -0.405376
 C         3.478209         0.980912         0.498792
 C         2.083125         0.754385         1.178953
 O         1.585958         1.805520         1.909290
 C         2.415914        -0.504090         1.910785
 C         2.340400        -1.177188         0.460445
 H        -0.548179        -0.541580         0.852702
 H        -0.509888         0.815787        -0.310068
 H        -0.396434        -0.894565        -0.902270
 H         4.172801        -0.637561        -0.960950
 H         4.247806         0.821628         1.269533
 H         3.564504         1.914469        -0.101878
 H         1.672068         1.678694         2.839606
 H         3.298990        -0.458777         2.482803
 H         1.623520        -1.056230         2.464334
 H         2.171185        -2.256387         0.319204
