19
Iteration:   185
 C        -0.102360        -0.076194         0.079774
 C         1.449645        -0.043994        -0.009924
 O         2.229320         0.067867        -1.387163
 C         3.366787        -0.200517        -0.422940
 C         3.426203         1.009338         0.586699
 C         2.056788         0.640040         1.203363
 O         1.507346         1.870826         1.842843
 C         2.312439        -0.637850         1.948116
 C         2.392535        -1.147930         0.340918
 H        -0.451761        -0.297014         1.086742
 H        -0.490137         0.882882        -0.232214
 H        -0.639580        -0.843453        -0.465677
 H         4.209953        -0.492962        -1.074160
 H         4.352346         1.020300         1.255754
 H         3.270781         2.076855         0.208047
 H         1.212891         1.606419         2.692158
 H         3.337999        -0.536835         2.488066
 H         1.494831        -1.073699         2.539735
 H         2.105228        -2.098175        -0.042974
