19
Iteration:  2933
 C        -0.133255        -0.313683         0.071840
 C         1.364030        -0.106974         0.004879
 O         1.984139         0.112154        -1.287770
 C         3.165548        -0.251974        -0.436117
 C         3.496534         1.044187         0.421500
 C         2.162302         0.750294         1.246549
 O         1.456274         1.854901         1.798756
 C         2.567056        -0.490208         1.939618
 C         2.512372        -1.135552         0.509304
 H        -0.441600        -0.430745         1.058740
 H        -0.611481         0.523617        -0.504248
 H        -0.286552        -1.246119        -0.522292
 H         3.980889        -0.528905        -1.136087
 H         4.432761         0.998401         0.943547
 H         3.401838         1.931483        -0.190384
 H         2.013268         2.586297         2.188635
 H         3.522900        -0.345847         2.424850
 H         1.887850        -0.850645         2.651241
 H         2.434099        -2.285727         0.287416
