19
Iteration:   260
 C        -0.101142        -0.204400        -0.164474
 C         1.371432        -0.048190        -0.040082
 O         2.142818         0.193541        -1.241044
 C         3.280921        -0.302037        -0.411356
 C         3.502238         1.050746         0.496425
 C         2.111691         0.765527         1.246529
 O         1.604284         1.896388         2.027621
 C         2.431784        -0.683527         1.883428
 C         2.289428        -1.201967         0.442258
 H        -0.473817        -0.718779         0.759765
 H        -0.714100         0.731344        -0.339592
 H        -0.364839        -1.016003        -0.892117
 H         4.151582        -0.560794        -1.005267
 H         4.273728         1.138502         1.303585
 H         3.489143         1.919750        -0.206105
 H         0.624341         2.031887         1.843373
 H         3.520129        -0.589040         2.240577
 H         1.663378        -0.946419         2.652084
 H         2.254202        -2.159876         0.103141
