19
Iteration:   567charge 0 multiplicity 1
 C        -0.038083         0.014571        -0.082638
 C         1.421544        -0.078710         0.109851
 O         2.099507         0.199394        -1.187861
 C         3.313198        -0.249279        -0.469799
 C         3.422545         0.981238         0.486498
 C         2.147726         0.763414         1.243537
 O         1.460030         1.788218         1.812510
 C         2.480298        -0.724705         1.894583
 C         2.380531        -1.195930         0.454505
 H        -0.552640        -0.095453         0.903265
 H        -0.061975         0.985986        -0.666251
 H        -0.406148        -0.790409        -0.778856
 H         4.090075        -0.362269        -1.289436
 H         4.225623         1.026179         1.274364
 H         3.350393         1.951048        -0.049440
 H         0.704777         1.345917         2.249100
 H         3.409139        -0.937243         2.509327
 H         1.610284        -1.075534         2.492781
 H         2.154899        -2.195595         0.194638
