19
Iteration:  1276
 C        -0.184544        -0.229171        -0.112984
 C         1.398192         0.039507         0.044627
 O         2.133108         0.145609        -1.246286
 C         3.312946        -0.266511        -0.380949
 C         3.429809         1.064928         0.466606
 C         2.166747         0.761521         1.220768
 O         1.493791         1.773246         1.975430
 C         2.482340        -0.604916         1.875878
 C         2.358640        -1.189757         0.441839
 H        -0.561923        -0.772480         0.756946
 H        -0.737934         0.660253        -0.551191
 H        -0.246122        -0.874857        -1.001799
 H         4.120313        -0.815840        -1.016523
 H         4.336831         1.129802         1.062892
 H         3.168267         1.933530        -0.138232
 H         2.031408         2.639752         1.970082
 H         3.462892        -0.658313         2.466998
 H         1.711964        -0.909537         2.617557
 H         2.119269        -2.162852        -0.023667
