19
Iteration:  1524
 C        -0.082056        -0.108166         0.034104
 C         1.433403        -0.005903         0.013679
 O         2.163189         0.222661        -1.230921
 C         3.324915        -0.163889        -0.470222
 C         3.433301         0.972720         0.492803
 C         2.093690         0.727480         1.174758
 O         1.443555         1.751742         1.932193
 C         2.445982        -0.734227         1.909028
 C         2.403647        -1.150123         0.408549
 H        -0.407619        -0.063674         1.119982
 H        -0.564676         0.701363        -0.592480
 H        -0.266981        -1.171668        -0.436291
 H         4.097851        -0.587302        -1.024300
 H         4.337322         0.962450         1.247152
 H         3.603408         1.778132        -0.267563
 H         0.756780         2.206143         1.364535
 H         3.287054        -0.809414         2.650806
 H         1.530905        -1.095684         2.379204
 H         2.293285        -2.183299         0.062040
