19
Iteration:  4431
 C        -0.147409        -0.309496         0.125421
 C         1.393590        -0.088520         0.083500
 O         2.040668         0.022129        -1.201100
 C         3.236874        -0.201748        -0.471305
 C         3.378328         1.082561         0.318398
 C         2.172550         0.849691         1.132774
 O         1.430717         1.763122         1.879729
 C         2.590829        -0.434280         1.862700
 C         2.556430        -1.149122         0.539696
 H        -0.532984        -0.533807         1.121661
 H        -0.673214         0.497834        -0.492790
 H        -0.349407        -1.243786        -0.531279
 H         4.045185        -0.397342        -1.194336
 H         4.210452         1.091283         0.993531
 H         3.162110         2.017174        -0.309621
 H         1.850892         2.623289         1.788900
 H         3.522004        -0.676250         2.414327
 H         1.722288        -0.849375         2.434029
 H         2.329649        -2.306094         0.298665
