19
Iteration:  2714charge 0 multiplicity 1
 C        -0.112942        -0.028410         0.168474
 C         1.355849        -0.173985         0.014939
 O         2.024553         0.031375        -1.220611
 C         3.300552        -0.148405        -0.462156
 C         3.399065         1.090870         0.377985
 C         2.087957         0.675060         1.167784
 O         1.494400         1.829696         1.716048
 C         2.549920        -0.620840         1.922404
 C         2.547954        -1.166034         0.510941
 H        -0.444888        -0.359736         1.092877
 H        -0.389676         1.023359        -0.024480
 H        -0.472152        -0.696449        -0.600098
 H         4.078775        -0.466808        -1.186880
 H         4.104905         0.919228         1.159517
 H         3.230023         2.080664        -0.058009
 H         0.774522         1.733166         2.407372
 H         3.537138        -0.475295         2.403748
 H         1.899978        -1.045379         2.669102
 H         2.842890        -2.253527         0.266700
