19
Iteration:   103
 C        -0.262484        -0.228270        -0.231323
 C         1.323780        -0.193087        -0.035445
 O         2.110570         0.080254        -1.249117
 C         3.322250        -0.195847        -0.316484
 C         3.516555         1.019306         0.596832
 C         2.067765         0.798331         1.285476
 O         1.688874         2.066002         1.967457
 C         2.421773        -0.667906         1.845531
 C         2.415965        -1.184941         0.413210
 H        -0.956860        -0.556161         0.612916
 H        -0.640483         0.789922        -0.563990
 H        -0.401109        -0.885565        -1.152691
 H         4.167284        -0.547805        -0.957803
 H         4.319687         0.889742         1.346664
 H         3.637767         1.864703        -0.071232
 H         0.704098         1.941423         2.035231
 H         3.423311        -0.628316         2.329899
 H         1.798443        -1.277978         2.656488
 H         2.502998        -2.313085         0.055076
