19
Iteration:  1835charge 0 multiplicity 1
 C        -0.074379        -0.250164         0.018382
 C         1.420473        -0.041196        -0.047231
 O         2.109692         0.242372        -1.351330
 C         3.253082        -0.198059        -0.426009
 C         3.519882         0.972459         0.592538
 C         2.108672         0.819362         1.237230
 O         1.463605         1.798317         1.976666
 C         2.358530        -0.661732         1.877495
 C         2.422919        -1.174172         0.386245
 H        -0.318986        -0.817061         0.915126
 H        -0.640132         0.734226         0.127895
 H        -0.514702        -0.863341        -0.784710
 H         4.104422        -0.441407        -1.095975
 H         4.333386         0.649630         1.221530
 H         3.737339         1.955225         0.097172
 H         1.900190         2.569083         1.631545
 H         3.296159        -0.749838         2.348567
 H         1.563184        -1.289333         2.305608
 H         2.258149        -2.211588         0.036654
