19
Iteration:  3162charge 0 multiplicity 1
 C        -0.136542        -0.443856        -0.063927
 C         1.370924        -0.227968         0.069573
 O         1.951963         0.116620        -1.126686
 C         3.295963        -0.135497        -0.497893
 C         3.380839         1.101529         0.347579
 C         2.156997         0.793146         1.243875
 O         1.610237         1.986870         1.863089
 C         2.517621        -0.586511         1.912264
 C         2.420920        -1.176271         0.508394
 H        -0.582181        -0.400490         0.913125
 H        -0.672567         0.369092        -0.558865
 H        -0.404189        -1.379040        -0.568209
 H         4.137609        -0.382113        -1.114189
 H         4.285770         1.173193         0.941756
 H         3.308865         2.082123        -0.131968
 H         2.206661         2.732805         1.589058
 H         3.501270        -0.798125         2.408906
 H         1.686879        -0.888131         2.531576
 H         2.456326        -2.279361         0.444669
