19
Iteration:  2859charge 0 multiplicity 1
 C        -0.132490        -0.215156         0.125054
 C         1.372702        -0.157574         0.171307
 O         2.017290         0.077796        -1.219316
 C         3.235098        -0.233089        -0.497227
 C         3.494853         1.064258         0.403826
 C         2.160185         0.825429         1.104138
 O         1.371185         1.819038         1.763877
 C         2.586098        -0.492506         1.928923
 C         2.470017        -1.178883         0.445811
 H        -0.525772        -0.751744         0.963574
 H        -0.498013         0.820788         0.002754
 H        -0.263181        -0.779010        -0.836759
 H         4.082156        -0.698670        -0.999954
 H         4.365847         0.983730         1.119531
 H         3.465335         1.922343        -0.325034
 H         1.773752         2.240913         2.494999
 H         3.617800        -0.416620         2.285920
 H         1.971288        -0.962825         2.751909
 H         2.551046        -2.279353         0.114078
