19
Iteration:  3650
 C        -0.093225        -0.487691         0.080994
 C         1.312831        -0.225409        -0.034974
 O         2.023358         0.132280        -1.370744
 C         3.195509        -0.156947        -0.486243
 C         3.393204         1.055340         0.399699
 C         2.153366         0.806271         1.216239
 O         1.713392         2.035028         1.870920
 C         2.442333        -0.543309         1.954125
 C         2.447793        -1.110093         0.484328
 H        -0.367877        -0.734884         1.114980
 H        -0.576160         0.474825        -0.242064
 H        -0.487888        -1.451520        -0.314379
 H         4.143360        -0.482405        -1.078473
 H         4.246612         0.902410         1.140116
 H         3.397821         2.197949         0.141394
 H         1.132585         1.769802         2.642899
 H         3.301516        -0.491423         2.659606
 H         1.578095        -0.936635         2.473459
 H         2.631607        -2.193119         0.544312
