19
Iteration:  1333
 C        -0.139376        -0.347436        -0.148114
 C         1.379595        -0.070114         0.020725
 O         2.031438         0.146627        -1.230732
 C         3.260029        -0.121508        -0.428984
 C         3.531451         0.988932         0.527625
 C         2.093384         0.802305         1.215420
 O         1.589851         1.897879         1.890274
 C         2.396059        -0.643266         1.865419
 C         2.421355        -1.083124         0.485847
 H        -0.645116        -0.379092         0.830821
 H        -0.559775         0.545121        -0.593897
 H        -0.248598        -1.252217        -0.693972
 H         4.082687        -0.517230        -1.150861
 H         4.344465         0.719701         1.194423
 H         3.754515         2.013945         0.156240
 H         1.914028         1.828531         2.774652
 H         3.254902        -0.786634         2.521262
 H         1.508898        -1.238352         2.205144
 H         2.345817        -2.165267         0.216748
