19
Iteration:   433
 C        -0.079336        -0.204652        -0.168328
 C         1.336511         0.014484         0.075661
 O         2.127734         0.269670        -1.189368
 C         3.340313        -0.246628        -0.428194
 C         3.623326         0.872840         0.458514
 C         2.202457         0.798672         1.262740
 O         1.472651         1.766743         1.994540
 C         2.339796        -0.664005         1.906204
 C         2.324639        -1.097381         0.413489
 H        -0.655098        -0.591991         0.696258
 H        -0.725310         0.597035        -0.590663
 H        -0.089451        -0.957209        -0.970512
 H         4.065313        -0.692377        -1.082313
 H         4.504002         0.763604         1.092304
 H         3.610424         1.782515        -0.162083
 H         0.962263         2.286786         1.379267
 H         3.204886        -0.735411         2.582597
 H         1.451172        -0.863504         2.486030
 H         2.025093        -2.067371        -0.069255
