19
Iteration:  3752charge 0 multiplicity 1
 C        -0.026674        -0.200155         0.170026
 C         1.494605        -0.203440         0.040245
 O         2.017584         0.098966        -1.231039
 C         3.306505        -0.230316        -0.547951
 C         3.336957         1.109594         0.369438
 C         2.114323         0.724521         1.178354
 O         1.466728         1.892338         1.717795
 C         2.528091        -0.569119         1.951871
 C         2.495109        -1.148899         0.550197
 H        -0.064266        -0.447531         1.284898
 H        -0.568483         0.806666         0.026113
 H        -0.630904        -0.876566        -0.317594
 H         4.147084        -0.608989        -1.058723
 H         4.219393         1.472891         0.957056
 H         3.154927         1.983116        -0.196991
 H         0.648944         1.748686         2.206978
 H         3.442119        -0.620370         2.513645
 H         1.625140        -1.121178         2.406707
 H         2.300834        -2.204151         0.304865
