19
Iteration:   163
 C        -0.104250        -0.208530        -0.029443
 C         1.403475        -0.054539        -0.093758
 O         2.160318         0.134839        -1.286156
 C         3.302215        -0.211257        -0.389551
 C         3.518921         0.945668         0.543798
 C         2.156352         0.873079         1.200145
 O         1.479034         1.851652         1.909471
 C         2.356015        -0.593093         1.839440
 C         2.348774        -1.112416         0.447680
 H        -0.329608        -0.566583         0.966496
 H        -0.663234         0.700380        -0.215118
 H        -0.558231        -1.004519        -0.611510
 H         4.063292        -0.739206        -0.967488
 H         4.265335         0.672669         1.356484
 H         3.980395         1.802997        -0.021362
 H         1.134795         1.538870         2.808928
 H         3.281147        -0.962453         2.419282
 H         1.404158        -0.946641         2.223636
 H         2.422249        -2.154086         0.310115
