19
Iteration:  1765
 C        -0.118930        -0.108632        -0.169568
 C         1.376545        -0.076882         0.073607
 O         2.109345         0.156220        -1.188504
 C         3.226580        -0.161333        -0.489195
 C         3.422258         1.003258         0.497825
 C         2.091495         0.699994         1.239356
 O         1.498495         1.767839         1.944996
 C         2.452998        -0.672292         1.890028
 C         2.519438        -1.148842         0.422819
 H        -0.640217        -0.241154         0.818996
 H        -0.317744         0.924018        -0.560097
 H        -0.338556        -0.918475        -0.895409
 H         4.005805        -0.432452        -1.197632
 H         4.294740         0.916557         1.240578
 H         3.446675         1.871801        -0.174787
 H         2.076042         2.229709         2.524766
 H         3.425423        -0.420926         2.486548
 H         1.555745        -1.205886         2.312692
 H         2.125076        -2.155780         0.236626
