19
Iteration:  3011
 C        -0.156630        -0.402555         0.005054
 C         1.382180        -0.174526         0.009385
 O         2.007085         0.009873        -1.305400
 C         3.280388        -0.221129        -0.440735
 C         3.443975         1.108648         0.408024
 C         2.127327         0.884982         1.170469
 O         1.673662         1.901278         2.021971
 C         2.434496        -0.497439         1.839678
 C         2.430165        -1.141943         0.534596
 H        -0.350809        -0.516295         1.110057
 H        -0.730412         0.459982        -0.302199
 H        -0.510381        -1.343143        -0.484827
 H         4.179353        -0.418982        -0.997036
 H         4.362121         1.261944         0.913826
 H         3.416102         1.912652        -0.327930
 H         1.193010         2.670312         1.702406
 H         3.333118        -0.468448         2.416946
 H         1.515090        -0.788582         2.357139
 H         2.407925        -2.244576         0.303566
