19
Iteration:  1866
 C        -0.154112        -0.051367        -0.110406
 C         1.455940        -0.092851         0.093294
 O         2.090849         0.222081        -1.223441
 C         3.315216        -0.186731        -0.393409
 C         3.415559         1.111546         0.400969
 C         2.157402         0.676524         1.177083
 O         1.545140         1.629953         1.999220
 C         2.353868        -0.638599         1.909320
 C         2.473889        -1.224753         0.466953
 H        -0.759053        -0.482252         0.688483
 H        -0.359174         1.100943        -0.143750
 H        -0.259965        -0.566423        -1.050220
 H         4.146865        -0.358469        -1.121903
 H         4.377807         1.216640         0.908392
 H         3.235818         1.903310        -0.402601
 H         1.172574         2.422371         1.481889
 H         3.215944        -0.770463         2.629869
 H         1.421242        -1.182135         2.362067
 H         2.429558        -2.269891         0.193362
