19
Iteration:  4328
 C        -0.065089        -0.374830         0.119150
 C         1.391859        -0.114444         0.123667
 O         1.965405         0.108039        -1.170525
 C         3.335236        -0.196208        -0.503822
 C         3.415979         1.053852         0.283160
 C         2.133158         0.800659         1.179481
 O         1.428590         1.848914         1.729188
 C         2.495713        -0.551344         1.919501
 C         2.508641        -1.063870         0.496914
 H        -0.368793        -0.686906         1.220587
 H        -0.747963         0.537053        -0.077867
 H        -0.247292        -1.233676        -0.485074
 H         4.164076        -0.514073        -1.156326
 H         4.289617         1.211752         0.974173
 H         3.496583         1.852973        -0.422883
 H         2.044124         2.175383         2.463847
 H         3.416472        -0.520415         2.606959
 H         1.728377        -0.949613         2.607778
 H         2.331444        -2.048168         0.376011
