19
Iteration:  4357charge 0 multiplicity 1
 C        -0.101016        -0.316341         0.103751
 C         1.396114        -0.199570         0.093811
 O         1.991037         0.129936        -1.195628
 C         3.232969        -0.175743        -0.550020
 C         3.460943         1.079396         0.334142
 C         2.199185         0.815917         1.205262
 O         1.361668         1.821220         1.701404
 C         2.586352        -0.488824         1.946984
 C         2.475353        -1.138572         0.542176
 H        -0.091954        -0.892858         1.038716
 H        -0.582454         0.603770         0.094642
 H        -0.593095        -0.998886        -0.604013
 H         4.038070        -0.474828        -1.166482
 H         4.357493         0.904486         0.980870
 H         3.537260         1.851004        -0.441686
 H         1.657446         2.104775         2.587049
 H         3.537753        -0.438177         2.473926
 H         1.896449        -0.727070         2.753730
 H         2.595126        -2.283408         0.538160
