19
Iteration:  4399charge 0 multiplicity 1
 C        -0.040672        -0.255533         0.127307
 C         1.431279        -0.234017        -0.006726
 O         2.016987         0.033456        -1.220132
 C         3.266937        -0.158908        -0.502493
 C         3.321471         1.100054         0.278290
 C         2.136531         0.795367         1.193968
 O         1.413320         1.838673         1.807092
 C         2.551113        -0.481401         1.936371
 C         2.532582        -1.170451         0.584544
 H        -0.312922        -0.601537         1.129620
 H        -0.455174         0.805490         0.126220
 H        -0.614070        -0.920114        -0.610470
 H         4.072756        -0.347122        -1.207498
 H         4.281407         1.273438         0.800955
 H         3.034071         2.071208        -0.293203
 H         2.013780         2.413894         2.385230
 H         3.447713        -0.760726         2.466471
 H         1.791073        -0.903094         2.603248
 H         2.465328        -2.352766         0.338349
