19
Iteration:  2812charge 0 multiplicity 1
 C        -0.086835        -0.463164        -0.077917
 C         1.390971        -0.124597         0.093074
 O         1.959550         0.099960        -1.251527
 C         3.258345        -0.214163        -0.434135
 C         3.267361         1.125650         0.353831
 C         2.159066         0.772714         1.245234
 O         1.773299         1.906930         2.012458
 C         2.419436        -0.493350         1.889002
 C         2.444264        -1.127628         0.508901
 H        -0.594268        -0.834889         0.803625
 H        -0.526853         0.473967        -0.487727
 H        -0.085782        -1.191783        -0.883444
 H         4.034510        -0.680472        -1.093211
 H         4.211689         1.350405         0.858813
 H         2.952581         1.812114        -0.474181
 H         1.901796         2.668780         1.385830
 H         3.229684        -0.617245         2.602339
 H         1.494641        -0.730360         2.357310
 H         2.434098        -2.285207         0.304538
