19
Iteration:   631
 C         0.007260        -0.416773        -0.217415
 C         1.377046         0.064162        -0.016324
 O         2.042791         0.226944        -1.248085
 C         3.241929        -0.257712        -0.462983
 C         3.499857         0.932281         0.514519
 C         2.141795         0.817238         1.253950
 O         1.754901         1.873986         2.007670
 C         2.268015        -0.619745         1.910224
 C         2.292827        -1.010396         0.483841
 H        -0.394804        -0.987718         0.629746
 H        -0.719943         0.392136        -0.404228
 H        -0.182521        -0.991697        -1.106798
 H         4.130402        -0.742349        -1.066698
 H         4.309841         0.922059         1.286632
 H         3.675306         1.794973        -0.160745
 H         0.826291         1.708691         2.381007
 H         3.139546        -0.870746         2.546905
 H         1.422886        -1.120146         2.331004
 H         2.100369        -2.032932         0.295151
