19
Iteration:  3438charge 0 multiplicity 1
 C        -0.209880        -0.242408         0.056006
 C         1.315624        -0.110540        -0.061811
 O         2.054615         0.022988        -1.304505
 C         3.316442        -0.190802        -0.450015
 C         3.481142         1.034052         0.369312
 C         2.092545         0.769806         1.223482
 O         1.524315         1.857047         1.974422
 C         2.525381        -0.528415         1.886237
 C         2.535913        -1.091551         0.529874
 H        -0.424352        -0.444708         1.127704
 H        -0.687048         0.649698        -0.296349
 H        -0.657792        -1.123656        -0.365104
 H         3.992259        -0.845536        -1.030314
 H         4.382836         1.061363         1.006067
 H         3.306445         1.965646        -0.157245
 H         1.030165         2.399272         1.286052
 H         3.473032        -0.496579         2.424832
 H         1.791572        -0.998980         2.612091
 H         2.850655        -2.149941         0.507635
