19
Iteration:  2158charge 0 multiplicity 1
 C        -0.093243        -0.313086        -0.029532
 C         1.366007        -0.037136         0.044118
 O         2.114586         0.241827        -1.178465
 C         3.273170        -0.142368        -0.490408
 C         3.434939         1.052414         0.439496
 C         2.190264         0.742785         1.224778
 O         1.675157         1.860596         1.928757
 C         2.256770        -0.730155         1.889498
 C         2.450576        -1.159097         0.410922
 H        -0.510905        -0.109326         1.004700
 H        -0.543278         0.291572        -0.895667
 H        -0.236190        -1.324674        -0.373694
 H         4.010040        -0.389555        -1.278511
 H         4.408485         0.976824         1.004875
 H         3.184238         1.964631        -0.192673
 H         0.814336         1.743249         2.423601
 H         3.102755        -0.859258         2.559708
 H         1.294129        -0.943288         2.333440
 H         2.317055        -2.161241         0.018923
