19
Iteration:  1659charge 0 multiplicity 1
 C        -0.048573        -0.336571        -0.028680
 C         1.380371         0.041635         0.012541
 O         2.099321         0.323725        -1.181605
 C         3.292327        -0.196562        -0.453067
 C         3.530880         0.939012         0.546162
 C         2.129814         0.692078         1.209978
 O         1.486167         1.907055         1.775900
 C         2.370581        -0.716395         1.929653
 C         2.395308        -1.127353         0.397583
 H        -0.398667        -0.746515         0.945832
 H        -0.781738         0.564304        -0.098127
 H        -0.300614        -1.090073        -0.733891
 H         4.071750        -0.687979        -1.125022
 H         4.418217         1.060275         1.184502
 H         3.240537         1.859329        -0.075329
 H         1.861770         2.045314         2.624945
 H         3.265097        -1.043488         2.417202
 H         1.555105        -1.292459         2.398928
 H         2.099194        -2.116935         0.048795
