19
Iteration:  1609charge 0 multiplicity 1
 C        -0.141807        -0.194627        -0.156597
 C         1.327743        -0.104505        -0.040877
 O         2.118739         0.146704        -1.257931
 C         3.309975        -0.123330        -0.468492
 C         3.443729         1.050850         0.507268
 C         2.103183         0.740097         1.278116
 O         1.562828         1.794720         2.005628
 C         2.387219        -0.654158         1.896711
 C         2.421442        -1.165795         0.471694
 H        -0.617160        -0.730757         0.633098
 H        -0.632867         0.731901        -0.077892
 H        -0.488351        -0.807714        -1.020728
 H         4.185914        -0.518192        -0.947189
 H         4.293037         0.767299         1.102951
 H         3.566454         1.986570         0.009435
 H         1.979705         2.644481         1.750573
 H         3.332423        -0.563665         2.489095
 H         1.625161        -1.158479         2.510127
 H         2.635207        -2.217692         0.208937
