19
Iteration:  4753charge 0 multiplicity 1
 C        -0.087641        -0.280884         0.027078
 C         1.379921        -0.250950         0.156305
 O         2.045272         0.102615        -1.204100
 C         3.263502        -0.210605        -0.494020
 C         3.294748         1.043724         0.382293
 C         2.149465         0.810757         1.177488
 O         1.439001         1.928344         1.892544
 C         2.608881        -0.537706         1.895638
 C         2.521166        -1.224577         0.456047
 H        -0.325437        -0.553750         1.123966
 H        -0.460292         0.776874        -0.158041
 H        -0.564973        -0.926618        -0.774599
 H         4.177574        -0.448346        -1.200869
 H         4.247041         1.323652         1.027844
 H         3.189492         1.902185        -0.367969
 H         1.539308         2.677648         1.231568
 H         3.613351        -0.535469         2.421970
 H         1.847661        -0.876247         2.621315
 H         2.428191        -2.258783         0.327158
