19
Iteration:   665charge 0 multiplicity 1
 C        -0.179271        -0.269503        -0.249899
 C         1.331502        -0.128446        -0.043738
 O         2.057019         0.302886        -1.121286
 C         3.261272        -0.229098        -0.411179
 C         3.518079         0.964060         0.578121
 C         2.107334         0.735319         1.269994
 O         1.671817         1.949312         1.816275
 C         2.403620        -0.657088         1.883497
 C         2.375653        -1.158368         0.482641
 H        -0.629719        -0.785827         0.608192
 H        -0.416114         0.822671        -0.203479
 H        -0.317408        -0.889989        -1.170848
 H         4.130753        -0.666957        -1.045544
 H         4.355368         0.932130         1.345856
 H         3.638537         1.806251        -0.142325
 H         1.362266         1.686047         2.729668
 H         3.405788        -0.833786         2.338076
 H         1.592929        -1.161800         2.437077
 H         2.403530        -2.232614         0.340819
