19
Iteration:   958charge 0 multiplicity 1
 C        -0.153667        -0.377722        -0.213764
 C         1.295839        -0.123321        -0.083544
 O         2.108852         0.157813        -1.274942
 C         3.250834        -0.162907        -0.417074
 C         3.414047         0.978392         0.635998
 C         2.115414         0.786187         1.276605
 O         1.778213         2.054598         1.911870
 C         2.367839        -0.710191         1.900194
 C         2.342829        -1.103122         0.457912
 H        -0.462741        -0.534341         0.814718
 H        -0.675835         0.568678        -0.519952
 H        -0.348022        -1.222944        -0.981008
 H         4.256354        -0.462412        -1.014543
 H         4.344773         0.905725         1.279603
 H         3.280529         1.976393         0.161079
 H         1.438366         1.821198         2.839709
 H         3.374865        -0.800471         2.425139
 H         1.719126        -1.202986         2.601881
 H         2.292025        -2.103890        -0.006257
