19
Iteration:  3070charge 0 multiplicity 1
 C        -0.095025        -0.124046         0.160103
 C         1.303968        -0.219379         0.196309
 O         2.023395         0.059060        -1.162051
 C         3.291093        -0.159691        -0.452220
 C         3.458341         1.052332         0.418120
 C         2.069210         0.722536         1.157866
 O         1.363741         1.821653         1.654411
 C         2.583218        -0.572548         1.879618
 C         2.576807        -1.142662         0.426462
 H        -0.480603        -0.371836         1.210558
 H        -0.407833         0.947041         0.157752
 H        -0.622189        -0.748745        -0.555852
 H         4.044700        -0.656530        -1.117898
 H         4.402078         0.713907         0.987929
 H         3.593253         2.071554        -0.031428
 H         1.774124         2.612702         1.336101
 H         3.541170        -0.347473         2.457090
 H         2.039683        -1.108584         2.731747
 H         2.663410        -2.110049        -0.020741
