19
Iteration:  1836
 C        -0.079499        -0.242009         0.008827
 C         1.428252        -0.046877        -0.046770
 O         2.109290         0.238303        -1.343950
 C         3.254123        -0.199392        -0.431250
 C         3.518721         0.987681         0.590489
 C         2.116875         0.812766         1.238092
 O         1.462976         1.795493         1.978543
 C         2.359887        -0.660622         1.883922
 C         2.414330        -1.170734         0.384313
 H        -0.300078        -0.805140         0.917936
 H        -0.595788         0.721802         0.152257
 H        -0.523483        -0.880937        -0.791331
 H         4.080067        -0.461874        -1.110457
 H         4.331068         0.641302         1.203408
 H         3.706733         1.963832         0.106829
 H         1.882438         2.559795         1.620495
 H         3.277711        -0.773656         2.365567
 H         1.563207        -1.259752         2.277873
 H         2.271695        -2.230922         0.045296
