19
Iteration:  2775charge 0 multiplicity 1
 C        -0.159149        -0.441529         0.105261
 C         1.330244        -0.130488        -0.019159
 O         2.010457         0.134539        -1.362646
 C         3.248887        -0.193098        -0.522433
 C         3.476435         0.979915         0.470898
 C         2.199781         0.823644         1.232224
 O         1.644036         1.883105         1.974902
 C         2.482072        -0.411986         1.905466
 C         2.428969        -1.115600         0.462410
 H        -0.800535        -0.385511         1.046177
 H        -0.620840         0.223350        -0.601298
 H        -0.364232        -1.398610        -0.396959
 H         4.134556        -0.533984        -1.031466
 H         4.384867         0.905555         1.086822
 H         3.659153         1.938749         0.011258
 H         0.741985         1.972706         1.533667
 H         3.405888        -0.442782         2.500955
 H         1.606949        -0.772229         2.492234
 H         2.305499        -2.134423         0.417127
