19
Iteration:  4703charge 0 multiplicity 1
 C        -0.049514        -0.323690         0.078442
 C         1.408268        -0.180241         0.072402
 O         2.032287         0.107674        -1.222521
 C         3.291363        -0.237880        -0.501298
 C         3.457093         1.128092         0.250834
 C         2.111316         0.853146         1.155201
 O         1.469289         1.785232         2.007069
 C         2.467797        -0.486498         1.904862
 C         2.481631        -1.149516         0.527790
 H        -0.503291        -0.131068         1.001337
 H        -0.352958         0.518909        -0.590674
 H        -0.329524        -1.348438        -0.277396
 H         3.870235        -0.714800        -1.210358
 H         4.404593         1.183221         0.639881
 H         3.570763         1.953420        -0.477870
 H         1.002924         2.376339         1.446858
 H         3.343916        -0.489516         2.622399
 H         1.544906        -0.814079         2.497136
 H         2.413945        -2.284054         0.417249
