19
Iteration:  2313charge 0 multiplicity 1
 C        -0.175056        -0.423162        -0.094247
 C         1.374522        -0.009065         0.037910
 O         2.025851         0.292426        -1.125712
 C         3.213331        -0.207185        -0.509986
 C         3.545756         1.003762         0.479663
 C         2.205421         0.790786         1.223080
 O         1.698117         1.891291         1.891837
 C         2.405011        -0.614729         1.870414
 C         2.380618        -1.154857         0.451895
 H        -0.633819        -0.825107         0.786994
 H        -0.767542         0.471873        -0.533088
 H        -0.023338        -1.150962        -0.864624
 H         3.744623        -0.829357        -1.155961
 H         4.475542         0.786424         1.165990
 H         3.470513         2.047813         0.103489
 H         0.761085         1.800013         2.013935
 H         3.173209        -0.780372         2.625112
 H         1.550239        -1.073501         2.387500
 H         2.286747        -2.216976         0.183204
