19
Iteration:   626charge 0 multiplicity 1
 C        -0.016907        -0.377464        -0.220721
 C         1.356732        -0.000042        -0.010251
 O         2.054114         0.211025        -1.282945
 C         3.255553        -0.247829        -0.418394
 C         3.539946         0.945741         0.502099
 C         2.139728         0.851088         1.258656
 O         1.745528         1.868139         2.045620
 C         2.242295        -0.599234         1.882390
 C         2.320052        -1.073506         0.443440
 H        -0.346103        -0.818733         0.741847
 H        -0.807211         0.392909        -0.198027
 H        -0.101539        -1.129133        -1.055216
 H         3.961027        -0.597587        -1.084218
 H         4.310739         0.865175         1.249223
 H         3.645321         1.885096        -0.046398
 H         0.858251         1.899279         2.332942
 H         3.122761        -0.709762         2.513565
 H         1.304612        -1.057158         2.331702
 H         2.225250        -2.189564         0.238215
