19
Iteration:   278
 C        -0.158271        -0.292973        -0.086933
 C         1.357978        -0.064397        -0.036907
 O         2.165522         0.225407        -1.198212
 C         3.339985        -0.185898        -0.402467
 C         3.434136         1.016018         0.428348
 C         2.102988         0.782382         1.248169
 O         1.744157         1.820287         1.989306
 C         2.253930        -0.597212         1.844753
 C         2.426070        -1.174714         0.464969
 H        -0.614845        -0.724340         0.805856
 H        -0.523506         0.737965        -0.252725
 H        -0.438006        -0.936687        -0.953405
 H         4.223824        -0.656554        -0.832349
 H         4.319055         1.158522         1.035550
 H         3.326339         1.892966        -0.183183
 H         0.751027         1.828891         1.847020
 H         2.894343        -0.922258         2.626267
 H         1.194540        -0.829349         2.100091
 H         2.253906        -2.292075         0.108770
