19
Iteration:  4773
 C        -0.123669        -0.283052         0.091530
 C         1.374379        -0.124960         0.098089
 O         1.978578         0.088633        -1.197480
 C         3.263179        -0.150805        -0.453072
 C         3.433317         1.101300         0.288509
 C         2.140222         0.730972         1.156932
 O         1.461026         1.796927         1.771244
 C         2.522767        -0.567884         1.970434
 C         2.563021        -1.100098         0.543250
 H        -0.594223        -0.850748         1.025702
 H        -0.690538         0.657206         0.025767
 H        -0.347886        -0.906471        -0.789321
 H         4.058061        -0.616909        -1.168691
 H         4.353708         1.342598         0.932087
 H         3.303152         2.057856        -0.147801
 H         2.079041         2.486073         1.606726
 H         3.449341        -0.403101         2.650064
 H         1.697695        -1.247409         2.417241
 H         2.578170        -2.177093         0.390788
