19
Iteration:   200charge 0 multiplicity 1
 C        -0.055017        -0.017854         0.024683
 C         1.404196        -0.139907        -0.014840
 O         2.160248         0.201323        -1.230892
 C         3.331833        -0.229865        -0.415789
 C         3.363805         1.025347         0.469423
 C         2.108423         0.700115         1.245895
 O         1.531870         1.811168         1.772475
 C         2.341403        -0.699859         1.894145
 C         2.454659        -1.176383         0.458961
 H        -0.330169        -0.052611         1.081746
 H        -0.345005         0.976740        -0.309837
 H        -0.516317        -0.715447        -0.663780
 H         4.305249        -0.515182        -0.892423
 H         4.180223         1.235563         1.127377
 H         3.256599         1.861169        -0.211423
 H         1.038700         1.559593         2.579238
 H         3.019873        -0.881197         2.663520
 H         1.424091        -1.091247         2.324887
 H         2.513182        -2.335739         0.149624
