19
Iteration:  2547
 C        -0.135675        -0.036292         0.040074
 C         1.360602        -0.194867         0.056680
 O         1.927969         0.036755        -1.274799
 C         3.290015        -0.191325        -0.433470
 C         3.431120         1.125182         0.402993
 C         2.151070         0.703905         1.165773
 O         1.485442         1.840779         1.796245
 C         2.589097        -0.650132         1.929771
 C         2.562846        -1.144487         0.491644
 H        -0.365729         0.141420         1.134006
 H        -0.433668         0.847993        -0.404775
 H        -0.668270        -0.856898        -0.409010
 H         4.171415        -0.470379        -1.058713
 H         4.235520         1.045176         1.190744
 H         3.480578         2.156686        -0.035717
 H         1.047702         1.373032         2.558494
 H         3.502335        -0.696352         2.523104
 H         1.815325        -0.979268         2.602103
 H         2.613103        -2.169580         0.175749
