19
Iteration:  4489
 C        -0.041779        -0.408667         0.078354
 C         1.391552        -0.192173         0.065025
 O         1.960686         0.079957        -1.129852
 C         3.272859        -0.128218        -0.487279
 C         3.476826         1.154619         0.310146
 C         2.158948         0.777253         1.154315
 O         1.563978         1.926874         1.855957
 C         2.455348        -0.537972         1.908453
 C         2.462506        -1.173302         0.503049
 H        -0.452705        -0.264825         1.185512
 H        -0.654376         0.310011        -0.406323
 H        -0.180294        -1.408519        -0.292090
 H         3.917594        -0.508311        -1.214055
 H         4.377422         1.347315         1.032469
 H         3.383483         2.076182        -0.239308
 H         0.698316         2.144112         1.433174
 H         3.431348        -0.684552         2.293652
 H         1.642339        -0.973493         2.457665
 H         2.336915        -2.263265         0.223282
