19
Iteration:   849
 C        -0.099415        -0.141327        -0.048857
 C         1.387103        -0.189084         0.011797
 O         2.049459         0.221622        -1.219550
 C         3.316329        -0.227536        -0.501363
 C         3.490030         1.057476         0.419233
 C         2.147530         0.716999         1.239193
 O         1.583031         1.741793         1.902260
 C         2.358684        -0.543239         1.942881
 C         2.446038        -1.136122         0.510708
 H        -0.684132        -0.507165         0.738625
 H        -0.332131         0.891776        -0.233078
 H        -0.468156        -0.775422        -0.865793
 H         4.069397        -0.616941        -1.306298
 H         4.301809         0.978348         1.187685
 H         3.650893         2.041121        -0.053423
 H         0.640031         1.756719         2.015020
 H         3.195421        -0.745399         2.608449
 H         1.429021        -0.911030         2.300599
 H         2.534951        -2.191904         0.276145
