19
Iteration:  1053charge 0 multiplicity 1
 C        -0.084353         0.055163         0.125635
 C         1.428479        -0.200099        -0.003223
 O         2.129863         0.209863        -1.235615
 C         3.350061        -0.157511        -0.388503
 C         3.393021         0.926901         0.545202
 C         2.120716         0.690359         1.118275
 O         1.463494         1.829445         1.685619
 C         2.423174        -0.656026         1.854778
 C         2.432714        -1.235326         0.448434
 H        -0.470892         0.062201         1.196480
 H        -0.276926         1.149351        -0.067242
 H        -0.680096        -0.711193        -0.462803
 H         4.171591        -0.514552        -0.882247
 H         4.107601         0.871090         1.352727
 H         3.348669         1.939011         0.143639
 H         0.803065         1.420746         2.253861
 H         3.438114        -0.823906         2.389157
 H         1.754631        -1.018793         2.644859
 H         2.553817        -2.303584         0.279931
