19
Iteration:  1113
 C        -0.161928        -0.211867        -0.183614
 C         1.310420        -0.090972        -0.059464
 O         2.159580         0.185207        -1.252583
 C         3.326615        -0.266558        -0.398062
 C         3.392621         0.964316         0.526177
 C         2.066858         0.742875         1.182985
 O         1.643863         1.873400         1.953873
 C         2.434259        -0.531474         1.917363
 C         2.342401        -1.132748         0.465403
 H        -0.299555        -0.673102         0.779624
 H        -0.622871         0.730747        -0.439085
 H        -0.407095        -0.911056        -0.931430
 H         4.119171        -0.875212        -1.026513
 H         4.194390         0.958906         1.315121
 H         3.441102         1.993203         0.119547
 H         1.923891         1.545883         2.790831
 H         3.367939        -0.476869         2.379439
 H         1.637323        -0.905955         2.606016
 H         2.261747        -2.219640         0.242781
