19
Iteration:  3710charge 0 multiplicity 1
 C        -0.117267        -0.256249        -0.039872
 C         1.341428        -0.152053         0.079646
 O         1.918138         0.043201        -1.180147
 C         3.243772        -0.186215        -0.548925
 C         3.431069         1.058530         0.378205
 C         2.208951         0.802290         1.192422
 O         1.517774         1.828404         1.797121
 C         2.657013        -0.476824         2.002632
 C         2.499579        -1.141611         0.551634
 H        -0.591402        -0.307168         0.935760
 H        -0.439317         0.748813        -0.268642
 H        -0.515218        -0.786404        -0.873345
 H         3.916866        -0.464809        -1.310751
 H         4.351279         1.082913         0.976929
 H         3.254308         1.974334        -0.079701
 H         0.761163         1.236356         2.123227
 H         3.645842        -0.293834         2.446385
 H         1.900125        -0.871391         2.751607
 H         2.573185        -2.260487         0.507655
