19
Iteration:  3140charge 0 multiplicity 1
 C        -0.148640        -0.433619        -0.036558
 C         1.342088        -0.161907         0.028002
 O         2.000982         0.049594        -1.348943
 C         3.163045        -0.248412        -0.512222
 C         3.457196         1.058932         0.404750
 C         2.186897         0.844408         1.221870
 O         1.552154         1.889678         1.980098
 C         2.551025        -0.399837         1.947083
 C         2.436172        -1.081946         0.509753
 H        -0.525258        -0.608969         0.938570
 H        -0.897931         0.300500        -0.341030
 H        -0.332321        -1.352975        -0.619727
 H         4.072374        -0.691426        -0.866360
 H         4.288141         0.959940         1.100167
 H         3.627531         1.996627        -0.157351
 H         2.149955         2.606249         2.169885
 H         3.549212        -0.359157         2.441328
 H         1.876930        -0.841178         2.649032
 H         2.485353        -2.188303         0.301812
