19
Iteration:  4597charge 0 multiplicity 1
 C        -0.138899        -0.340513         0.074906
 C         1.365419        -0.159578         0.031307
 O         2.028719         0.045299        -1.226976
 C         3.228507        -0.227368        -0.464515
 C         3.451192         1.123385         0.395853
 C         2.178323         0.881819         1.180746
 O         1.440587         1.836353         1.798968
 C         2.548699        -0.462939         1.835650
 C         2.506253        -1.146346         0.565761
 H        -0.287239        -0.897512         1.074885
 H        -0.593349         0.611535         0.161940
 H        -0.688008        -0.800348        -0.706788
 H         3.920389        -0.732217        -1.045545
 H         4.315591         1.120424         1.037007
 H         3.230878         1.874536        -0.275029
 H         1.807573         2.110959         2.615571
 H         3.516589        -0.411024         2.303364
 H         1.846763        -1.012859         2.463042
 H         2.747655        -2.210030         0.247434
