19
Iteration:  3636charge 0 multiplicity 1
 C        -0.111365        -0.475291         0.073529
 C         1.399815        -0.159093         0.025219
 O         1.956400         0.114470        -1.200789
 C         3.261292        -0.156556        -0.580401
 C         3.439458         1.013326         0.424056
 C         2.079942         0.840776         1.201075
 O         1.677413         2.006738         1.859300
 C         2.408790        -0.515804         1.927581
 C         2.545873        -1.120324         0.508049
 H        -0.438841        -0.555006         1.115846
 H        -0.748807         0.303698        -0.328939
 H        -0.376015        -1.367012        -0.662584
 H         3.981767        -0.493699        -1.309123
 H         4.373812         0.915812         1.003890
 H         3.625604         1.858186        -0.254372
 H         0.899181         1.829329         2.358681
 H         3.338676        -0.631840         2.528265
 H         1.590535        -0.983094         2.431269
 H         2.338213        -2.148605         0.103385
