19
Iteration:  3712
 C        -0.142715        -0.241496        -0.032960
 C         1.341766        -0.155248         0.094454
 O         1.922421         0.038553        -1.175995
 C         3.254734        -0.169480        -0.560495
 C         3.437218         1.074604         0.392796
 C         2.190358         0.801137         1.179247
 O         1.519314         1.822880         1.781504
 C         2.670523        -0.487623         2.001549
 C         2.490657        -1.144058         0.562699
 H        -0.567658        -0.309455         0.953351
 H        -0.403887         0.788821        -0.249273
 H        -0.577132        -0.854475        -0.935142
 H         3.984509        -0.536006        -1.308977
 H         4.322338         1.016198         1.019076
 H         3.253134         2.035776        -0.104030
 H         0.773861         1.238069         2.072386
 H         3.678758        -0.313557         2.480591
 H         1.961706        -0.911160         2.715512
 H         2.600975        -2.291531         0.490843
