19
Iteration:  4151
 C        -0.092561        -0.345646         0.038586
 C         1.366619        -0.146493         0.081732
 O         1.999362         0.126882        -1.229164
 C         3.264333        -0.208526        -0.487988
 C         3.459084         1.042177         0.353399
 C         2.106704         0.829026         1.167725
 O         1.432593         1.861885         1.800053
 C         2.553516        -0.462317         1.925656
 C         2.506956        -1.175731         0.573325
 H        -0.325174        -0.895972         0.992922
 H        -0.717970         0.538226        -0.138768
 H        -0.369954        -0.988773        -0.877733
 H         3.981654        -0.641008        -1.174206
 H         4.219145         0.931705         1.144123
 H         3.489433         1.999372        -0.175944
 H         2.179677         2.056709         2.442491
 H         3.647969        -0.441920         2.277706
 H         1.639225        -0.758005         2.500674
 H         2.365945        -2.226891         0.512121
