19
Iteration:  2734
 C        -0.131459        -0.130103         0.131930
 C         1.434093        -0.186624         0.178043
 O         2.026848         0.199749        -1.220938
 C         3.285585        -0.235343        -0.473935
 C         3.391179         1.077661         0.401491
 C         2.219473         0.741481         1.216578
 O         1.462637         1.831521         1.662241
 C         2.556423        -0.634952         1.925696
 C         2.502038        -1.210221         0.488374
 H        -0.466946         0.000952         1.227493
 H        -0.356764         0.844887        -0.270964
 H        -0.640119        -0.919556        -0.375497
 H         4.085843        -0.355573        -1.210301
 H         4.377424         1.295468         0.856170
 H         3.038735         1.852046        -0.297494
 H         0.563423         1.580742         1.865852
 H         3.399005        -0.705598         2.583940
 H         1.764933        -1.119700         2.398362
 H         2.326823        -2.257094         0.211994
