19
Iteration:   437
 C        -0.099570        -0.239120        -0.187984
 C         1.350228         0.045177         0.072675
 O         2.140920         0.260451        -1.189846
 C         3.244869        -0.230836        -0.463162
 C         3.663767         0.850866         0.481626
 C         2.195346         0.820213         1.298570
 O         1.478153         1.763135         1.997848
 C         2.336382        -0.636887         1.910256
 C         2.363455        -1.095014         0.381730
 H        -0.730797        -0.649422         0.667374
 H        -0.814496         0.613076        -0.572893
 H        -0.096324        -1.014430        -1.024565
 H         4.046327        -0.767555        -1.066615
 H         4.535037         0.721210         1.176413
 H         3.777516         1.800359        -0.109056
 H         0.928690         2.273893         1.332221
 H         3.309657        -0.827913         2.532064
 H         1.396152        -0.813524         2.500901
 H         2.100849        -2.099394         0.195126
