19
Iteration:  1344charge 0 multiplicity 1
 C        -0.060999        -0.288735        -0.054523
 C         1.378720        -0.075777         0.000622
 O         2.085048         0.230096        -1.206417
 C         3.305034        -0.199829        -0.471442
 C         3.456369         0.969083         0.491124
 C         2.169939         0.730107         1.250696
 O         1.504468         1.905022         1.869334
 C         2.384870        -0.612842         1.901679
 C         2.386219        -1.163822         0.410753
 H        -0.568814        -0.410452         0.908259
 H        -0.556684         0.437705        -0.694716
 H        -0.320949        -1.164806        -0.611478
 H         4.235546        -0.517602        -1.111195
 H         4.305339         0.740975         1.126894
 H         3.503116         1.975900         0.014826
 H         1.634749         1.883844         2.829216
 H         3.332817        -0.693604         2.429747
 H         1.551736        -0.750015         2.652168
 H         2.213984        -2.174561        -0.029168
