19
Iteration:  4923
 C        -0.141953        -0.339668         0.149251
 C         1.391483        -0.094204         0.070651
 O         2.022632         0.075830        -1.230886
 C         3.252039        -0.288772        -0.582649
 C         3.441417         1.113733         0.306241
 C         2.155291         0.801148         1.137172
 O         1.393361         1.784917         1.907697
 C         2.565844        -0.466367         1.957768
 C         2.545565        -1.094010         0.528443
 H        -0.545783        -0.371788         1.227113
 H        -0.632140         0.359095        -0.562546
 H        -0.441752        -1.235264        -0.366920
 H         4.174144        -0.441907        -1.218497
 H         4.447253         1.215783         0.862854
 H         3.134070         1.889140        -0.460152
 H         2.023333         2.497974         1.977003
 H         3.424918        -0.385684         2.577672
 H         1.752009        -0.866497         2.545711
 H         2.490655        -2.239416         0.259346
