19
Iteration:  1063charge 0 multiplicity 1
 C        -0.049825         0.056335         0.119946
 C         1.430801        -0.080846         0.058572
 O         2.122379         0.189992        -1.223551
 C         3.304125        -0.215472        -0.476706
 C         3.471189         0.983533         0.529264
 C         2.104502         0.678417         1.241523
 O         1.405103         1.778273         1.640239
 C         2.391504        -0.714591         1.920797
 C         2.494218        -1.212229         0.458189
 H        -0.328842        -0.064024         1.194207
 H        -0.084646         1.066912        -0.318455
 H        -0.609480        -0.641779        -0.544971
 H         4.065593        -0.363896        -1.173848
 H         4.387276         0.946813         1.111696
 H         3.483779         1.821898        -0.166310
 H         0.782785         1.594356         2.378546
 H         3.316354        -0.699229         2.542194
 H         1.470468        -1.078483         2.426739
 H         2.326491        -2.238742         0.128204
