19
Iteration:  2531
 C        -0.094477        -0.119720         0.012918
 C         1.394319        -0.204305         0.100123
 O         2.027553         0.080079        -1.143806
 C         3.264097        -0.149333        -0.582940
 C         3.342568         1.051867         0.354392
 C         2.110138         0.741585         1.247883
 O         1.571722         1.856098         1.843167
 C         2.506107        -0.573494         1.926672
 C         2.545623        -1.204476         0.476476
 H        -0.753200        -0.175280         0.848648
 H        -0.148893         0.938440        -0.532172
 H        -0.597335        -0.808821        -0.726692
 H         4.056137        -0.408290        -1.274442
 H         4.300609         1.173748         0.875017
 H         3.003782         1.854888        -0.284198
 H         1.203609         1.713602         2.717656
 H         3.423787        -0.559185         2.548342
 H         1.618346        -1.106941         2.344919
 H         2.494438        -2.328778         0.340175
