19
Iteration:   700
 C        -0.004341         0.028583         0.017232
 C         1.438445        -0.057978        -0.043325
 O         2.138430         0.074045        -1.277877
 C         3.304640        -0.209582        -0.473035
 C         3.448770         1.006078         0.522536
 C         2.125191         0.692606         1.240323
 O         1.480610         1.761935         1.863311
 C         2.322351        -0.652092         1.898831
 C         2.452447        -1.122374         0.482206
 H        -0.414093        -0.203709         1.029090
 H        -0.317926         1.081673        -0.266400
 H        -0.482248        -0.501094        -0.852119
 H         4.041652        -0.480206        -1.184508
 H         4.436188         1.112445         1.014986
 H         3.227762         1.912511        -0.049433
 H         0.671053         1.428566         2.323595
 H         3.212445        -0.835575         2.529944
 H         1.426454        -1.129512         2.415301
 H         2.258319        -2.206623         0.403428
