19
Iteration:  3827
 C        -0.088160        -0.497549        -0.125503
 C         1.341791        -0.085470         0.138113
 O         1.943126         0.063479        -1.136775
 C         3.242899        -0.215990        -0.472805
 C         3.304733         1.166769         0.317596
 C         2.143489         0.746905         1.261747
 O         1.735528         1.963287         1.782744
 C         2.583615        -0.519509         1.991581
 C         2.455785        -1.131311         0.542799
 H        -0.853298        -0.732265         0.718384
 H        -0.592048         0.481417        -0.554740
 H        -0.081712        -1.099689        -0.971358
 H         3.934217        -0.479877        -1.247603
 H         4.235891         1.488562         0.952627
 H         3.071435         1.949051        -0.412294
 H         0.966921         1.889991         2.396077
 H         3.478696        -0.525350         2.543603
 H         1.678257        -0.972823         2.433472
 H         2.506525        -2.210776         0.440445
