19
Iteration:  3265
 C        -0.033754        -0.176364         0.044533
 C         1.385857        -0.307966         0.115469
 O         1.919019         0.068063        -1.168493
 C         3.311398        -0.147932        -0.445144
 C         3.402020         1.105911         0.303314
 C         2.152394         0.777296         1.245083
 O         1.480739         1.834857         1.825055
 C         2.533897        -0.551752         1.866308
 C         2.536156        -1.165044         0.525618
 H        -0.747216        -0.486551         0.846979
 H        -0.458192         0.767570        -0.215657
 H        -0.443996        -0.792302        -0.795059
 H         4.137999        -0.556340        -1.086875
 H         4.247832         1.275752         1.016105
 H         3.125354         1.892446        -0.387705
 H         1.649495         2.659533         1.408935
 H         3.354152        -0.647399         2.558919
 H         1.605278        -0.942807         2.371489
 H         2.680861        -2.253565         0.393613
