19
Iteration:  1703charge 0 multiplicity 1
 C        -0.024411        -0.000136        -0.045482
 C         1.432023        -0.132292         0.006296
 O         2.031720         0.176399        -1.249891
 C         3.349537        -0.219991        -0.509307
 C         3.465340         1.036606         0.444820
 C         2.111998         0.719631         1.255030
 O         1.367048         1.728187         1.882673
 C         2.431169        -0.667507         1.947696
 C         2.532207        -1.159932         0.439268
 H        -0.483165        -0.043308         0.963344
 H        -0.264576         1.083871        -0.404392
 H        -0.551822        -0.789357        -0.534790
 H         4.080518        -0.553194        -1.315438
 H         4.216747         0.892175         1.190385
 H         3.480792         1.991678        -0.188531
 H         1.554083         1.677065         2.802166
 H         3.151230        -0.530011         2.702948
 H         1.543707        -1.130284         2.419804
 H         2.321886        -2.211947         0.245245
