19
Iteration:  3517
 C        -0.121238        -0.332103         0.068155
 C         1.350193        -0.072704         0.047589
 O         1.981964         0.065078        -1.187497
 C         3.317312        -0.210803        -0.422084
 C         3.418400         1.069911         0.409727
 C         2.086522         0.848947         1.147824
 O         1.536116         1.863664         1.782996
 C         2.527174        -0.548619         1.868866
 C         2.459129        -1.134277         0.465787
 H        -0.391887        -0.683523         1.000357
 H        -0.739482         0.510977        -0.141138
 H        -0.195018        -1.174686        -0.691817
 H         4.016584        -0.589202        -1.097628
 H         4.214977         1.056935         1.143279
 H         3.645738         1.968807        -0.117418
 H         1.873560         2.009719         2.716408
 H         3.586585        -0.495868         2.270151
 H         1.880416        -0.916480         2.607796
 H         2.366642        -2.207417         0.216034
