19
Iteration:  4983charge 0 multiplicity 1
 C        -0.066409        -0.384567         0.197425
 C         1.379485        -0.065974         0.078598
 O         2.003302         0.174089        -1.195570
 C         3.217229        -0.273472        -0.551839
 C         3.390622         1.005911         0.329105
 C         2.132153         0.810038         1.196210
 O         1.445370         1.879596         1.686328
 C         2.603540        -0.501904         1.915823
 C         2.534911        -1.135332         0.547356
 H        -0.369900        -0.800562         1.099766
 H        -0.519573         0.593291         0.274663
 H        -0.274547        -1.024641        -0.687587
 H         4.116277        -0.448159        -1.190026
 H         4.396149         1.215572         0.805721
 H         3.181432         1.845539        -0.354092
 H         1.015264         1.676057         2.578456
 H         3.611143        -0.477698         2.498766
 H         1.795462        -0.950139         2.583727
 H         2.572615        -2.159355         0.448103
