19
Iteration:   339charge 0 multiplicity 1
 C        -0.181740        -0.104323        -0.135629
 C         1.446051        -0.015969         0.015072
 O         2.134226         0.348465        -1.149688
 C         3.338406        -0.318224        -0.417175
 C         3.578770         1.000278         0.478869
 C         2.106252         0.702678         1.145153
 O         1.443264         1.765211         1.777220
 C         2.468745        -0.709722         1.933086
 C         2.315047        -1.181684         0.552027
 H        -0.656867        -0.365712         0.833594
 H        -0.799746         0.730324        -0.477759
 H        -0.489024        -0.850988        -0.863381
 H         4.187978        -0.722935        -1.046654
 H         4.300071         1.233217         1.292552
 H         3.431299         1.880072        -0.190064
 H         1.503613         1.670155         2.783369
 H         3.484595        -0.752379         2.442339
 H         1.737840        -1.169241         2.615925
 H         2.209716        -2.161739         0.179942
