19
Iteration:  2160charge 0 multiplicity 1
 C        -0.098107        -0.302364        -0.026993
 C         1.379383        -0.040114         0.035144
 O         2.099715         0.239560        -1.197165
 C         3.273122        -0.168393        -0.493357
 C         3.440784         1.059098         0.453489
 C         2.174485         0.740828         1.219594
 O         1.667070         1.854650         1.936195
 C         2.265592        -0.727786         1.895294
 C         2.463922        -1.152667         0.427464
 H        -0.482130        -0.102145         0.971063
 H        -0.486999         0.383003        -0.947527
 H        -0.233527        -1.339440        -0.365233
 H         3.950323        -0.385731        -1.311595
 H         4.411704         1.040800         1.014802
 H         3.208735         1.942688        -0.192569
 H         0.852594         1.763970         2.490648
 H         3.127428        -0.818346         2.543597
 H         1.274659        -0.964119         2.335334
 H         2.335671        -2.144758        -0.014372
