19
Iteration:  1358charge 0 multiplicity 1
 C        -0.053170        -0.202578         0.004208
 C         1.452421        -0.052286         0.047260
 O         2.170095         0.327992        -1.234295
 C         3.267823        -0.282914        -0.477329
 C         3.473434         0.984646         0.473430
 C         2.111548         0.747212         1.230691
 O         1.439048         1.791771         1.780238
 C         2.424870        -0.591026         2.005500
 C         2.349246        -1.231708         0.361568
 H        -0.398775        -0.099377         1.032285
 H        -0.558893         0.668912        -0.292815
 H        -0.284499        -1.213802        -0.382140
 H         4.025256        -0.619568        -1.129913
 H         4.339544         1.330151         1.121998
 H         3.268365         1.761673        -0.299268
 H         1.432403         1.677304         2.736831
 H         3.354581        -0.672422         2.490213
 H         1.564015        -1.113789         2.474628
 H         2.205545        -2.304828         0.232253
