19
Iteration:  2157
 C        -0.091347        -0.316049        -0.031524
 C         1.362391        -0.036759         0.047345
 O         2.119131         0.243267        -1.171365
 C         3.273642        -0.130849        -0.488910
 C         3.433352         1.049441         0.433177
 C         2.194492         0.742820         1.228769
 O         1.678492         1.863622         1.925712
 C         2.255566        -0.729078         1.885541
 C         2.442757        -1.161472         0.403671
 H        -0.528887        -0.115196         1.004132
 H        -0.564346         0.245100        -0.848926
 H        -0.241062        -1.327440        -0.374007
 H         4.044418        -0.395103        -1.252932
 H         4.395322         0.957476         0.996773
 H         3.186990         1.966932        -0.180488
 H         0.812542         1.726366         2.381068
 H         3.093290        -0.881620         2.575916
 H         1.300203        -0.940265         2.332689
 H         2.308042        -2.174202         0.034851
