19
Iteration:  4616charge 0 multiplicity 1
 C        -0.118785        -0.357812         0.158243
 C         1.406437        -0.103284         0.070194
 O         2.038519         0.089396        -1.221958
 C         3.334841        -0.186876        -0.497134
 C         3.462747         1.089937         0.277952
 C         2.159946         0.807476         1.127573
 O         1.390545         1.804849         1.821580
 C         2.557386        -0.515186         1.968055
 C         2.416337        -1.098120         0.525572
 H        -0.525592        -0.914981         0.936363
 H        -0.815646         0.496839        -0.110487
 H        -0.276040        -1.016296        -0.759940
 H         4.104160        -0.514498        -1.178683
 H         4.404320         1.067254         0.776475
 H         3.439001         1.980590        -0.422444
 H         1.942263         2.343966         2.375694
 H         3.397452        -0.610984         2.737925
 H         1.629782        -0.774047         2.686814
 H         2.209626        -2.219080         0.267509
