19
Iteration:  1474charge 0 multiplicity 1
 C        -0.133922        -0.365576        -0.130912
 C         1.405429        -0.012873         0.049931
 O         2.059573         0.228119        -1.266128
 C         3.286444        -0.217240        -0.576302
 C         3.465728         0.936411         0.573293
 C         2.072933         0.754821         1.286963
 O         1.536676         1.860185         1.992109
 C         2.369655        -0.565245         1.875749
 C         2.494610        -1.103101         0.438646
 H        -0.642664        -0.753660         0.745502
 H        -0.557868         0.604928        -0.318436
 H        -0.137836        -1.036651        -0.903368
 H         4.076401        -0.681545        -1.261976
 H         4.235799         0.578114         1.175392
 H         3.672094         1.923111         0.137033
 H         2.291992         2.418887         2.044611
 H         3.268933        -0.622626         2.490336
 H         1.555428        -1.081813         2.407207
 H         2.167987        -2.100629         0.134752
