19
Iteration:  1409charge 0 multiplicity 1
 C        -0.051262        -0.002018        -0.015825
 C         1.439567        -0.146702        -0.023107
 O         2.044409         0.078108        -1.272488
 C         3.297814        -0.166813        -0.530336
 C         3.388876         1.020771         0.515874
 C         2.071842         0.702764         1.225023
 O         1.415885         1.793341         1.844797
 C         2.449029        -0.681533         1.922178
 C         2.576022        -1.113298         0.477179
 H        -0.571821        -0.300392         0.933676
 H        -0.260491         1.138000        -0.040649
 H        -0.554656        -0.498366        -0.861903
 H         4.197440        -0.638853        -1.138730
 H         4.204276         0.795210         1.149406
 H         3.461082         2.078084         0.190766
 H         1.588183         1.854402         2.827642
 H         3.392378        -0.649162         2.502625
 H         1.568052        -1.071248         2.490510
 H         2.549463        -2.233446         0.398068
