19
Iteration:   247charge 0 multiplicity 1
 C        -0.081112        -0.144364        -0.194299
 C         1.372293         0.053226        -0.005750
 O         2.098473         0.144819        -1.263851
 C         3.223649        -0.191581        -0.429284
 C         3.426522         0.915537         0.538720
 C         2.103200         0.761847         1.261416
 O         1.547682         1.823696         1.946830
 C         2.537540        -0.614282         1.913901
 C         2.391423        -1.169752         0.498474
 H        -0.433117        -0.420026         0.831268
 H        -0.676960         0.799591        -0.499871
 H        -0.191673        -0.825559        -1.098753
 H         3.942254        -0.760380        -0.974335
 H         4.368758         0.664964         1.072248
 H         3.574220         1.884667         0.064648
 H         0.620407         1.816345         1.782726
 H         3.572977        -0.785067         2.351856
 H         1.982211        -1.209798         2.709989
 H         2.228401        -2.200956         0.309659
