19
Iteration:  3264
 C        -0.023540        -0.177956         0.043782
 C         1.394233        -0.310477         0.118085
 O         1.921260         0.075631        -1.176062
 C         3.309431        -0.150172        -0.445273
 C         3.396618         1.106194         0.305039
 C         2.155706         0.783802         1.240711
 O         1.477578         1.827920         1.828436
 C         2.529344        -0.550573         1.859746
 C         2.528193        -1.172614         0.536937
 H        -0.750461        -0.469985         0.876126
 H        -0.435277         0.780150        -0.195813
 H        -0.438984        -0.776125        -0.773768
 H         4.136926        -0.558286        -1.103706
 H         4.268671         1.303520         0.980732
 H         3.117395         1.887347        -0.396822
 H         1.636975         2.653116         1.386128
 H         3.336174        -0.642472         2.542291
 H         1.602837        -0.952714         2.401321
 H         2.667930        -2.247394         0.414925
