19
Iteration:  1009
 C        -0.019940        -0.235174        -0.166349
 C         1.392001        -0.030425         0.053430
 O         2.038572         0.152581        -1.246017
 C         3.278413        -0.279769        -0.488011
 C         3.458071         1.054832         0.374981
 C         2.194288         0.766708         1.296226
 O         1.639155         1.857600         1.981352
 C         2.353774        -0.591627         1.945454
 C         2.313080        -1.137271         0.505261
 H        -0.530945        -0.856890         0.615142
 H        -0.442881         0.728434        -0.438825
 H         0.259706        -0.904237        -1.002892
 H         4.062358        -0.627861        -1.047393
 H         4.408338         0.867208         0.845183
 H         3.474653         1.993523        -0.180950
 H         0.714750         1.713815         2.244147
 H         3.019073        -0.823618         2.837972
 H         1.354266        -0.841928         2.366688
 H         2.212652        -2.191109         0.220315
