19
Iteration:  2825
 C        -0.100275        -0.397359        -0.101072
 C         1.315622        -0.192561         0.109385
 O         2.018361         0.099507        -1.259649
 C         3.200917        -0.182020        -0.544218
 C         3.377386         1.084924         0.262798
 C         2.140678         0.810471         1.211569
 O         1.664051         1.876180         1.974706
 C         2.468810        -0.526091         2.058241
 C         2.446339        -1.131135         0.563127
 H        -0.601741        -0.841159         0.696440
 H        -0.687285         0.548793        -0.307231
 H        -0.213931        -1.086527        -0.979566
 H         4.112992        -0.506283        -1.104509
 H         4.317940         1.274188         0.868230
 H         3.087746         2.073490        -0.203305
 H         2.224608         2.634302         1.804150
 H         3.444623        -0.457616         2.538291
 H         1.705566        -0.800448         2.817765
 H         2.499514        -2.268128         0.188187
