19
Iteration:  1625
 C        -0.162241        -0.321367        -0.098550
 C         1.386342        -0.029907         0.002976
 O         2.060394         0.207186        -1.233199
 C         3.287229        -0.176102        -0.454776
 C         3.583809         0.925206         0.546110
 C         2.116428         0.758744         1.156386
 O         1.525099         1.737136         1.972271
 C         2.327794        -0.520636         1.903556
 C         2.463950        -1.063378         0.429056
 H        -0.384804        -0.988070         0.804271
 H        -0.803623         0.640374        -0.242082
 H        -0.221727        -0.820506        -1.071134
 H         4.018722        -0.527453        -1.224916
 H         4.409301         0.911991         1.339617
 H         3.613241         1.954901         0.062748
 H         2.233042         2.340811         2.133048
 H         3.154306        -0.735025         2.569423
 H         1.345273        -0.868704         2.253430
 H         2.231617        -2.106880         0.207428
