19
Iteration:  3973charge 0 multiplicity 1
 C        -0.085138        -0.377904         0.061365
 C         1.379965        -0.123352         0.033896
 O         2.097384         0.091369        -1.190441
 C         3.247754        -0.251803        -0.476358
 C         3.368512         1.090575         0.287771
 C         2.111521         0.790869         1.175338
 O         1.518057         1.789336         1.857453
 C         2.482769        -0.421629         1.924041
 C         2.453999        -1.081142         0.572894
 H        -0.559730        -0.821861         0.904893
 H        -0.631433         0.513979        -0.007471
 H        -0.079490        -1.003294        -0.893799
 H         4.110226        -0.585061        -1.121047
 H         4.306957         1.301520         0.772225
 H         2.990890         1.845925        -0.450529
 H         2.228312         2.369731         2.229883
 H         3.429065        -0.582333         2.502324
 H         1.676310        -0.666653         2.610513
 H         2.172336        -2.192876         0.306292
