19
Iteration:  1228
 C        -0.058865         0.032466         0.115613
 C         1.462532        -0.135932         0.089580
 O         2.083567         0.183006        -1.204234
 C         3.369918        -0.195442        -0.476455
 C         3.439978         0.976846         0.472580
 C         2.127693         0.679665         1.211364
 O         1.449741         1.734169         1.793871
 C         2.327844        -0.644933         1.864212
 C         2.528645        -1.168041         0.440394
 H        -0.405110        -0.220413         1.164054
 H        -0.240198         1.079967        -0.322664
 H        -0.593278        -0.661032        -0.655808
 H         4.147369        -0.160094        -1.157189
 H         4.298834         1.019244         1.220198
 H         3.313438         1.834440        -0.225850
 H         0.698150         1.826418         1.221720
 H         3.050210        -0.817409         2.747197
 H         1.346643        -1.088405         2.164902
 H         2.490760        -2.247529         0.276441
