19
Iteration:  1221
 C        -0.055464         0.003371         0.101463
 C         1.405439        -0.064797         0.056772
 O         2.155266         0.147941        -1.183493
 C         3.319904        -0.169584        -0.476645
 C         3.435661         1.036527         0.460922
 C         2.141853         0.692872         1.238503
 O         1.475259         1.745013         1.755079
 C         2.347161        -0.733419         1.923800
 C         2.501762        -1.138647         0.443007
 H        -0.499236        -0.110054         1.087469
 H        -0.381976         1.014944        -0.229415
 H        -0.599240        -0.729812        -0.498639
 H         4.112737        -0.533499        -1.257287
 H         4.145498         1.033162         1.265052
 H         3.293274         1.889020        -0.188455
 H         0.609659         1.740580         1.273479
 H         3.169077        -1.068203         2.632628
 H         1.379071        -1.110289         2.256755
 H         2.543428        -2.149667         0.014109
