19
Iteration:  1453
 C        -0.103852        -0.298458        -0.204668
 C         1.338724        -0.012138         0.006078
 O         2.087767         0.213737        -1.234088
 C         3.245682        -0.253440        -0.427529
 C         3.511731         1.026800         0.439777
 C         2.201609         0.795238         1.233510
 O         1.489262         1.765019         1.980214
 C         2.475338        -0.573869         1.920612
 C         2.269205        -1.123168         0.496335
 H        -0.310382        -0.886648         0.689736
 H        -0.718474         0.623772        -0.185396
 H        -0.053311        -0.928915        -1.070990
 H         4.128783        -0.605185        -1.115523
 H         4.311670         0.959831         1.132750
 H         3.609334         1.929998        -0.171875
 H         2.088777         2.257493         2.618138
 H         3.462835        -0.842907         2.343091
 H         1.658617        -0.942963         2.588602
 H         2.324894        -2.171457         0.137317
