19
Iteration:  3847
 C        -0.178383        -0.393944        -0.090072
 C         1.327967        -0.292977         0.093425
 O         1.975018         0.042962        -1.172420
 C         3.247396        -0.141439        -0.467321
 C         3.373837         1.132257         0.273406
 C         2.142243         0.865330         1.175262
 O         1.659193         1.995774         1.912658
 C         2.534819        -0.530536         1.981437
 C         2.565100        -1.170411         0.564671
 H        -0.599421        -0.591494         0.935613
 H        -0.596143         0.477732        -0.654184
 H        -0.310399        -1.188980        -0.787511
 H         4.005603        -0.570441        -1.130447
 H         4.420245         1.227938         0.730634
 H         3.335517         2.043039        -0.362241
 H         0.807783         1.712842         2.187915
 H         3.496150        -0.577818         2.434382
 H         1.648219        -0.810861         2.544251
 H         2.499269        -2.176574         0.366157
