19
Iteration:  1318charge 0 multiplicity 1
 C        -0.164248        -0.339682        -0.218091
 C         1.265518        -0.121905         0.026291
 O         2.017517         0.147325        -1.256516
 C         3.256296        -0.165970        -0.536013
 C         3.493296         1.049457         0.581699
 C         2.145371         0.765354         1.238528
 O         1.679275         1.896854         1.963720
 C         2.317845        -0.576535         1.977384
 C         2.544493        -1.130719         0.420582
 H        -0.816527        -0.678512         0.649781
 H        -0.766889         0.522875        -0.767501
 H        -0.259436        -1.202881        -0.953816
 H         4.112551        -0.469905        -1.149748
 H         4.216386         0.870789         1.388042
 H         3.548133         1.944198         0.000548
 H         2.316434         1.983471         2.704138
 H         3.171211        -0.557613         2.793356
 H         1.345505        -0.895791         2.423424
 H         2.686013        -2.197320         0.182475
