19
Iteration:  4258
 C        -0.101774        -0.349791         0.023040
 C         1.395024        -0.133381         0.110583
 O         1.931683         0.071879        -1.253693
 C         3.311729        -0.223797        -0.472535
 C         3.421967         1.099841         0.311750
 C         2.214089         0.815334         1.196604
 O         1.495301         1.787805         1.910430
 C         2.587722        -0.448630         1.941375
 C         2.417512        -1.128197         0.544399
 H        -0.639711        -0.265547         0.970717
 H        -0.296374         0.557868        -0.476927
 H        -0.399562        -1.311852        -0.545904
 H         4.056266        -0.588568        -1.182093
 H         4.340677         1.442037         0.880914
 H         3.261376         2.025235        -0.364171
 H         1.120689         2.419537         1.198269
 H         3.367414        -0.641406         2.658385
 H         1.839027        -0.887788         2.606704
 H         2.566504        -2.305490         0.361681
