19
Iteration:  3445charge 0 multiplicity 1
 C        -0.229182        -0.286089         0.017608
 C         1.382440        -0.150118        -0.034712
 O         2.032708         0.066774        -1.314527
 C         3.291933        -0.191229        -0.437441
 C         3.389295         1.055175         0.393549
 C         2.176296         0.767762         1.180513
 O         1.549759         1.889647         1.950844
 C         2.509491        -0.549210         1.982789
 C         2.502826        -1.140763         0.507650
 H        -0.318645        -0.373019         1.166326
 H        -0.812596         0.674758        -0.160417
 H        -0.608771        -1.233782        -0.369664
 H         4.214827        -0.579311        -0.998897
 H         4.278390         1.165044         1.028205
 H         3.440492         2.071495        -0.096407
 H         1.318483         2.453561         1.139738
 H         3.546386        -0.612886         2.315495
 H         1.685849        -0.953289         2.618659
 H         2.663188        -2.204410         0.328004
