19
Iteration:   228charge 0 multiplicity 1
 C        -0.126219        -0.052221        -0.156912
 C         1.381772        -0.132585         0.112164
 O         2.033895         0.196565        -1.175292
 C         3.293209        -0.227053        -0.533948
 C         3.550261         0.982114         0.490595
 C         2.144246         0.713748         1.264833
 O         1.498412         1.776361         1.844727
 C         2.467224        -0.606200         1.954283
 C         2.434002        -1.185276         0.472505
 H        -0.841634        -0.208302         0.680995
 H        -0.256995         0.971459        -0.576193
 H        -0.304215        -0.705681        -1.034006
 H         4.166155        -0.474811        -1.168748
 H         4.369518         0.995384         1.270291
 H         3.689753         1.965613        -0.042451
 H         0.608713         1.469564         1.937608
 H         3.350037        -0.619667         2.717617
 H         1.608667        -0.937945         2.600689
 H         2.367241        -2.154551         0.136236
