19
Iteration:   241
 C        -0.087090        -0.096861        -0.196806
 C         1.378967         0.011083         0.042803
 O         2.075043         0.150507        -1.256683
 C         3.225387        -0.203974        -0.440975
 C         3.424318         0.887865         0.542421
 C         2.150363         0.723810         1.244250
 O         1.524136         1.793777         1.906879
 C         2.560768        -0.609275         1.948513
 C         2.415904        -1.084795         0.502810
 H        -0.654648        -0.438291         0.677062
 H        -0.507039         0.830920        -0.518523
 H        -0.238875        -0.814678        -0.976800
 H         4.054551        -0.589867        -1.097447
 H         4.306116         0.501633         1.079667
 H         3.532640         1.904400         0.108278
 H         0.527246         1.726777         1.813743
 H         3.580904        -0.640446         2.370389
 H         1.818506        -1.153121         2.520736
 H         2.180533        -2.184174         0.379672
