19
Iteration:  3800charge 0 multiplicity 1
 C        -0.110723        -0.499817         0.033498
 C         1.340295        -0.126724         0.009456
 O         2.004356         0.106718        -1.247300
 C         3.239205        -0.200915        -0.492089
 C         3.437475         1.056088         0.368334
 C         2.089843         0.821374         1.184176
 O         1.603231         2.019791         1.850962
 C         2.541856        -0.483012         1.956205
 C         2.430027        -1.167783         0.550627
 H        -0.404617        -0.765822         1.011801
 H        -0.619177         0.379675        -0.291146
 H        -0.412256        -1.213858        -0.814184
 H         4.005998        -0.512906        -1.271667
 H         4.282305         0.987803         1.004112
 H         3.712364         1.956224        -0.231154
 H         1.030865         1.717570         2.610028
 H         3.608163        -0.371681         2.349670
 H         1.819370        -0.918333         2.642841
 H         2.642645        -2.283500         0.476067
