19
Iteration:  2737charge 0 multiplicity 1
 C        -0.123779        -0.143764         0.169314
 C         1.435385        -0.196471         0.186321
 O         2.033626         0.215183        -1.218281
 C         3.300624        -0.238352        -0.481353
 C         3.424349         1.082303         0.357062
 C         2.218173         0.750506         1.231004
 O         1.451283         1.843749         1.683370
 C         2.533678        -0.636697         1.912239
 C         2.474521        -1.211955         0.479678
 H        -0.588499        -0.047290         1.101517
 H        -0.271307         0.826982        -0.410181
 H        -0.507407        -1.017983        -0.376873
 H         4.103019        -0.355367        -1.239066
 H         4.360271         1.190301         0.916661
 H         3.007176         1.863372        -0.297317
 H         0.523907         1.630053         1.812915
 H         3.434779        -0.681781         2.570535
 H         1.717798        -1.103287         2.504737
 H         2.318315        -2.332945         0.194847
