19
Iteration:   333
 C        -0.207146        -0.133617        -0.116253
 C         1.368618        -0.002132        -0.017641
 O         2.156712         0.303490        -1.145175
 C         3.300912        -0.273861        -0.396507
 C         3.580783         0.983625         0.533845
 C         2.109057         0.742089         1.185005
 O         1.470084         1.838400         1.778879
 C         2.480619        -0.696676         1.912722
 C         2.358207        -1.197378         0.470069
 H        -0.620159        -0.514520         0.816270
 H        -0.828347         0.705453        -0.499531
 H        -0.401707        -0.919891        -0.886702
 H         4.075668        -0.781857        -0.952971
 H         4.381205         1.043681         1.273121
 H         3.483513         1.849667        -0.101112
 H         1.502110         1.522047         2.685412
 H         3.417893        -0.825584         2.406957
 H         1.725857        -1.231278         2.514082
 H         2.349795        -2.388853         0.218324
