19
Iteration:  3284
 C        -0.242699        -0.307265        -0.043967
 C         1.355157        -0.120154         0.138388
 O         2.022258         0.018198        -1.232601
 C         3.231745        -0.141529        -0.551009
 C         3.393196         1.071454         0.442949
 C         2.106592         0.782953         1.174198
 O         1.531373         1.875382         1.826112
 C         2.583172        -0.560395         1.971847
 C         2.608006        -1.161214         0.563162
 H        -0.726858        -0.587349         0.998995
 H        -0.721355         0.705073        -0.105205
 H        -0.603859        -0.929879        -0.836607
 H         4.017700        -0.379029        -1.340275
 H         4.353124         0.936561         0.965536
 H         3.429647         2.051962        -0.074950
 H         2.092751         2.597360         1.535085
 H         3.461371        -0.378412         2.562303
 H         1.876097        -1.122348         2.687587
 H         2.542864        -2.183259         0.237841
