19
Iteration:   765
 C        -0.083646        -0.169998        -0.129285
 C         1.437142        -0.141711         0.064791
 O         2.000003         0.185425        -1.238593
 C         3.219086        -0.138550        -0.490871
 C         3.544562         0.914108         0.529264
 C         2.138491         0.756951         1.278457
 O         1.511386         1.835115         1.925770
 C         2.371387        -0.644615         1.929990
 C         2.451779        -1.178413         0.483625
 H        -0.782828        -0.268339         0.719706
 H        -0.226234         0.845568        -0.623700
 H        -0.197104        -0.857600        -1.001197
 H         4.021013        -0.287098        -1.261090
 H         4.494188         0.728885         1.092531
 H         3.554794         1.888120         0.016920
 H         1.826973         2.655140         1.453842
 H         3.249777        -0.683911         2.582818
 H         1.478302        -1.138307         2.438597
 H         2.453207        -2.208077         0.077797
