19
Iteration:  3198
 C        -0.068798        -0.297797         0.056756
 C         1.390987        -0.183399         0.044289
 O         1.976848         0.131420        -1.223809
 C         3.302927        -0.177982        -0.556149
 C         3.428015         1.060792         0.372560
 C         2.159096         0.765384         1.184817
 O         1.507367         1.831345         1.897194
 C         2.482841        -0.495168         1.956806
 C         2.457502        -1.145725         0.548067
 H        -0.212359        -0.360786         1.216644
 H        -0.517251         0.505404        -0.486037
 H        -0.381220        -1.257578        -0.322640
 H         4.148170        -0.519703        -1.222489
 H         4.290672         0.885279         1.009371
 H         3.390690         1.957930        -0.234209
 H         1.253697         2.495746         1.186541
 H         3.396580        -0.515898         2.466098
 H         1.579941        -0.932191         2.490468
 H         2.475479        -2.195955         0.312357
