19
Iteration:  3141charge 0 multiplicity 1
 C        -0.141025        -0.439046        -0.038622
 C         1.332991        -0.172063         0.015525
 O         2.000379         0.053103        -1.347023
 C         3.156354        -0.239648        -0.506047
 C         3.459278         1.058628         0.414314
 C         2.187217         0.847364         1.224236
 O         1.556341         1.895247         1.975095
 C         2.553673        -0.407056         1.946800
 C         2.435599        -1.082067         0.518684
 H        -0.540654        -0.610440         0.966545
 H        -0.847325         0.309244        -0.363308
 H        -0.345655        -1.338507        -0.608194
 H         4.064357        -0.664768        -0.909003
 H         4.301950         0.941904         1.075286
 H         3.614209         1.962694        -0.187459
 H         2.137952         2.608869         2.160223
 H         3.517622        -0.363473         2.425807
 H         1.905968        -0.866501         2.676905
 H         2.472755        -2.164692         0.282955
