19
Iteration:   772charge 0 multiplicity 1
 C        -0.077681        -0.220584        -0.169127
 C         1.378177        -0.145976         0.109169
 O         2.001754         0.211637        -1.159760
 C         3.268777        -0.129949        -0.543384
 C         3.515932         0.948338         0.508788
 C         2.154813         0.737723         1.249447
 O         1.549674         1.869374         1.921437
 C         2.332353        -0.656564         1.875175
 C         2.452631        -1.173657         0.504619
 H        -0.712744        -0.401330         0.665326
 H        -0.319014         0.734964        -0.604051
 H        -0.309183        -0.937290        -0.987126
 H         4.143379        -0.628224        -1.208754
 H         4.431369         0.786202         1.125029
 H         3.534445         1.996747         0.112425
 H         2.113650         2.683052         1.705682
 H         3.107410        -0.750766         2.641839
 H         1.456613        -1.113884         2.262026
 H         2.431693        -2.196887         0.165644
