19
Iteration:  3104charge 0 multiplicity 1
 C        -0.046845        -0.256875         0.077106
 C         1.425378        -0.223514         0.067897
 O         1.991886         0.093156        -1.247835
 C         3.246801        -0.226411        -0.432460
 C         3.384340         1.149176         0.259529
 C         2.193456         0.817515         1.199984
 O         1.472863         1.808800         1.856127
 C         2.460743        -0.516549         1.956576
 C         2.456627        -1.185914         0.502149
 H        -0.183673        -0.703833         1.037189
 H        -0.360293         0.820744        -0.006645
 H        -0.490883        -0.919539        -0.705150
 H         4.059923        -0.778530        -0.952293
 H         4.380846         1.325222         0.780589
 H         3.086544         1.998130        -0.401774
 H         2.085470         2.558959         1.969621
 H         3.432001        -0.615874         2.577044
 H         1.550473        -0.761852         2.542940
 H         2.555125        -2.269193         0.326192
