19
Iteration:  1816charge 0 multiplicity 1
 C        -0.147448        -0.342717         0.049344
 C         1.378849         0.025371         0.029254
 O         2.154209         0.320678        -1.205575
 C         3.373130        -0.196018        -0.487449
 C         3.477444         0.881049         0.594036
 C         2.062995         0.693898         1.157249
 O         1.500838         1.851486         1.894125
 C         2.377892        -0.648245         1.836003
 C         2.360786        -1.083215         0.314991
 H        -0.276523        -0.851343         1.012575
 H        -0.755692         0.494107         0.041823
 H        -0.216404        -1.183744        -0.700376
 H         4.145731        -0.609072        -1.132269
 H         4.173147         0.579513         1.385994
 H         3.605788         1.867426         0.184508
 H         2.163168         2.578439         1.885310
 H         3.289135        -0.675365         2.435552
 H         1.485792        -0.948209         2.349426
 H         2.303070        -2.178030         0.067936
