19
Iteration:  4210
 C        -0.112751        -0.283021         0.128263
 C         1.429675        -0.209837         0.024135
 O         2.008340         0.090024        -1.220005
 C         3.271487        -0.193527        -0.442643
 C         3.398020         1.069664         0.331337
 C         2.159237         0.743006         1.191924
 O         1.512192         1.910281         1.771095
 C         2.487347        -0.524800         1.939386
 C         2.546784        -1.118281         0.476719
 H        -0.386633        -0.535864         1.170306
 H        -0.549710         0.765636         0.065733
 H        -0.430011        -1.049969        -0.485420
 H         4.156124        -0.549751        -1.016597
 H         4.287079         1.250251         0.907466
 H         3.336091         1.957870        -0.277892
 H         0.607767         1.729825         2.056443
 H         3.351567        -0.515660         2.581213
 H         1.752838        -0.886343         2.640224
 H         2.398339        -2.188409         0.215703
