19
Iteration:   199charge 0 multiplicity 1
 C        -0.058051        -0.021889         0.032147
 C         1.404644        -0.131994        -0.013553
 O         2.165351         0.193413        -1.246659
 C         3.341301        -0.225303        -0.420120
 C         3.357937         1.021571         0.480811
 C         2.104322         0.701441         1.247851
 O         1.534403         1.808575         1.772293
 C         2.337089        -0.692364         1.908085
 C         2.452056        -1.174590         0.443876
 H        -0.339099        -0.048742         1.078782
 H        -0.336175         0.959386        -0.292162
 H        -0.509753        -0.708872        -0.643490
 H         4.308834        -0.552695        -0.897974
 H         4.163038         1.236860         1.160373
 H         3.241995         1.853173        -0.220858
 H         1.039359         1.588249         2.611756
 H         3.045699        -0.878771         2.665576
 H         1.439565        -1.094495         2.319164
 H         2.490968        -2.327765         0.122875
