19
Iteration:  4361charge 0 multiplicity 1
 C        -0.123983        -0.311060         0.107677
 C         1.389316        -0.198672         0.081021
 O         1.982387         0.099358        -1.186230
 C         3.277911        -0.153030        -0.548364
 C         3.466752         1.073174         0.331127
 C         2.156192         0.819876         1.193980
 O         1.372320         1.815174         1.700377
 C         2.595205        -0.497402         1.960832
 C         2.497277        -1.113456         0.566662
 H        -0.144713        -0.894623         1.070674
 H        -0.675336         0.672423         0.105880
 H        -0.597716        -0.945268        -0.615743
 H         4.123446        -0.476966        -1.203943
 H         4.379455         0.878735         0.912323
 H         3.543787         1.851765        -0.393123
 H         1.628058         2.120507         2.581529
 H         3.677164        -0.536500         2.349689
 H         1.812350        -0.829549         2.692434
 H         2.469303        -2.124739         0.421778
