19
Iteration:  4423charge 0 multiplicity 1
 C        -0.138568        -0.287440         0.107644
 C         1.389596        -0.132269         0.145933
 O         2.037117         0.049573        -1.258017
 C         3.261905        -0.229534        -0.479284
 C         3.398085         1.146177         0.279429
 C         2.113845         0.813097         1.148540
 O         1.450588         1.742145         1.856125
 C         2.547929        -0.453856         1.914873
 C         2.559310        -1.142879         0.524276
 H        -0.588496        -0.538766         1.136046
 H        -0.681614         0.571431        -0.226739
 H        -0.346786        -1.184328        -0.471184
 H         4.068694        -0.593195        -1.037890
 H         4.312323         1.416277         0.952648
 H         3.253510         1.945341        -0.478092
 H         1.917665         2.583006         1.993288
 H         3.427049        -0.566742         2.562847
 H         1.791374        -0.836506         2.585073
 H         2.459185        -2.249760         0.186702
