19
Iteration:  1442charge 0 multiplicity 1
 C        -0.125679        -0.246738        -0.162023
 C         1.398896        -0.070812         0.034567
 O         2.107288         0.226951        -1.150827
 C         3.319034        -0.290931        -0.460734
 C         3.462132         1.150712         0.435783
 C         2.208396         0.795537         1.234851
 O         1.487839         1.734225         1.917571
 C         2.444571        -0.616415         1.860990
 C         2.317145        -1.147102         0.501358
 H        -0.690344        -0.836995         0.585260
 H        -0.665640         0.738511        -0.281298
 H        -0.426333        -0.723236        -1.109648
 H         4.034552        -0.980739        -1.106787
 H         4.306937         1.240142         1.078402
 H         3.377926         2.026406        -0.227633
 H         2.084011         1.996877         2.695512
 H         3.420312        -0.936422         2.278971
 H         1.626179        -0.765876         2.616867
 H         2.122374        -2.244918         0.339145
