19
Iteration:   754charge 0 multiplicity 1
 C        -0.056750        -0.051716        -0.105057
 C         1.373322        -0.060439        -0.009670
 O         2.047920         0.157118        -1.281753
 C         3.253305        -0.200574        -0.452640
 C         3.474949         0.957179         0.537419
 C         2.148051         0.705663         1.266751
 O         1.470933         1.756354         1.919977
 C         2.474534        -0.611966         2.017353
 C         2.449881        -1.173236         0.397458
 H        -0.573466        -0.247637         0.860053
 H        -0.427908         0.962691        -0.461849
 H        -0.473131        -0.884281        -0.725888
 H         4.120736        -0.490778        -1.092063
 H         4.330057         0.668549         1.201327
 H         3.768221         1.864134         0.002923
 H         1.212543         2.422907         1.209102
 H         3.428118        -0.718402         2.541960
 H         1.594227        -0.937885         2.656144
 H         2.315545        -2.257029         0.252654
