19
Iteration:  4513charge 0 multiplicity 1
 C        -0.131763        -0.359701         0.094489
 C         1.348539        -0.101350         0.123783
 O         2.065000         0.082694        -1.355278
 C         3.255681        -0.202801        -0.512532
 C         3.352478         0.994814         0.340562
 C         2.129732         0.790802         1.239208
 O         1.540240         1.892834         1.864466
 C         2.585048        -0.449559         1.932637
 C         2.524462        -1.101195         0.509135
 H        -0.365909        -0.462030         1.233071
 H        -0.846985         0.422350        -0.102590
 H        -0.303190        -1.313848        -0.355132
 H         4.167566        -0.625030        -1.040207
 H         4.295104         1.123105         1.046975
 H         3.346783         1.959182        -0.167984
 H         0.553879         1.925543         1.647212
 H         3.514360        -0.540698         2.536127
 H         1.759967        -1.051157         2.417599
 H         2.435039        -2.112868         0.375845
