19
Iteration:  4700
 C        -0.016466        -0.332060         0.061187
 C         1.404576        -0.186437         0.076032
 O         2.013697         0.117248        -1.228755
 C         3.297166        -0.232172        -0.489163
 C         3.438983         1.109799         0.259187
 C         2.114121         0.860931         1.145720
 O         1.468294         1.794537         2.003081
 C         2.439989        -0.518297         1.928687
 C         2.488708        -1.143619         0.520317
 H        -0.457936        -0.084775         1.013240
 H        -0.349680         0.566733        -0.528239
 H        -0.345296        -1.368051        -0.184801
 H         3.912287        -0.768240        -1.280265
 H         4.470973         1.220562         0.710923
 H         3.528733         1.944138        -0.516012
 H         1.029116         2.476672         1.419648
 H         3.399732        -0.524584         2.431873
 H         1.632477        -0.779104         2.529187
 H         2.466430        -2.193657         0.471601
