19
Iteration:   963
 C        -0.192434        -0.412911        -0.269148
 C         1.284880        -0.108903        -0.083722
 O         2.113996         0.173003        -1.284198
 C         3.237202        -0.166445        -0.416816
 C         3.429730         0.998315         0.638060
 C         2.076799         0.759876         1.331513
 O         1.803388         2.044935         1.909168
 C         2.407274        -0.655098         1.916508
 C         2.361729        -1.133050         0.447118
 H        -0.490108        -0.642162         0.778507
 H        -0.609110         0.562307        -0.471588
 H        -0.486276        -1.211754        -0.883217
 H         4.122252        -0.506497        -0.879969
 H         4.230054         0.952836         1.365406
 H         3.541425         1.960250         0.113864
 H         1.525138         1.889570         2.795059
 H         3.382906        -0.782386         2.336575
 H         1.682079        -1.195614         2.578972
 H         2.172954        -2.103428        -0.029046
