19
Iteration:  3299
 C        -0.133530        -0.368638         0.040348
 C         1.330154        -0.184828         0.029666
 O         2.014070         0.129234        -1.319079
 C         3.240620        -0.152842        -0.530528
 C         3.402936         0.988022         0.403400
 C         2.122714         0.749909         1.237840
 O         1.539795         1.894975         1.856827
 C         2.580713        -0.443363         1.960543
 C         2.402427        -1.146467         0.560273
 H        -0.384965        -0.887627         0.951461
 H        -0.580136         0.578088        -0.238470
 H        -0.180134        -1.152646        -0.787998
 H         4.150567        -0.465675        -1.047828
 H         4.263822         0.980333         1.105927
 H         3.465881         1.972645        -0.073156
 H         2.115278         2.655250         1.851705
 H         3.635353        -0.487155         2.334237
 H         1.903166        -0.837506         2.701031
 H         2.391096        -2.264109         0.647389
