19
Iteration:  4652
 C        -0.172241        -0.358601         0.100044
 C         1.357556        -0.229247         0.025420
 O         1.968862         0.133601        -1.211807
 C         3.332563        -0.134728        -0.465356
 C         3.418580         1.049293         0.416195
 C         2.133910         0.806251         1.182233
 O         1.447608         1.906230         1.776309
 C         2.577955        -0.564948         1.937025
 C         2.527036        -1.171659         0.514893
 H        -0.640718        -0.358262         1.160114
 H        -0.539798         0.540747        -0.337516
 H        -0.407157        -1.269997        -0.383717
 H         4.115495        -0.431413        -1.135774
 H         4.371135         1.138896         0.989253
 H         3.467801         1.964046        -0.121976
 H         2.072963         2.643548         1.688815
 H         3.485721        -0.558618         2.543084
 H         1.699909        -1.068580         2.410358
 H         2.602819        -2.215363         0.100788
