19
Iteration:  4076
 C        -0.109072        -0.248665         0.101396
 C         1.354293        -0.116437         0.004437
 O         2.011532         0.050986        -1.246483
 C         3.284655        -0.194171        -0.480633
 C         3.469162         1.086388         0.373894
 C         2.169277         0.831826         1.118223
 O         1.452925         1.795911         1.875104
 C         2.541147        -0.565581         1.956838
 C         2.475457        -1.114139         0.530561
 H        -0.393728        -0.353116         1.172699
 H        -0.612545         0.467485        -0.561785
 H        -0.471339        -1.208219        -0.269093
 H         4.169037        -0.443112        -1.043631
 H         4.305445         1.045983         1.093131
 H         3.632773         1.943315        -0.218942
 H         0.934432         2.300518         1.265339
 H         3.404736        -0.495755         2.716041
 H         1.724893        -1.058267         2.558968
 H         2.658834        -2.121922         0.442885
