19
Iteration:  1370charge 0 multiplicity 1
 C        -0.063189        -0.086812         0.113479
 C         1.405978        -0.022847         0.006349
 O         2.154399         0.286718        -1.210510
 C         3.322607        -0.270903        -0.428929
 C         3.483978         1.024917         0.422851
 C         2.134703         0.665913         1.162815
 O         1.367804         1.727637         1.728508
 C         2.438276        -0.666002         1.877806
 C         2.430195        -1.134591         0.526956
 H        -0.320089        -0.198297         1.161797
 H        -0.492640         0.727845        -0.453264
 H        -0.575068        -0.914632        -0.443777
 H         4.062799        -0.687092        -1.019593
 H         4.405890         1.049298         1.097445
 H         3.385717         1.952675        -0.164828
 H         1.270104         1.523619         2.661702
 H         3.276318        -0.703749         2.562247
 H         1.616777        -1.179192         2.400900
 H         2.191858        -2.131350         0.196043
