19
Iteration:   599
 C        -0.216138        -0.245361        -0.086336
 C         1.351502        -0.187670        -0.083665
 O         2.183484         0.187231        -1.272174
 C         3.360520        -0.173428        -0.447506
 C         3.423671         0.992176         0.515565
 C         2.120904         0.787540         1.234954
 O         1.721943         1.854468         2.010767
 C         2.298826        -0.664702         1.884184
 C         2.405600        -1.091808         0.440613
 H        -0.669485        -0.215061         0.938072
 H        -0.520597         0.821346        -0.259517
 H        -0.724339        -0.964582        -0.759840
 H         4.229406        -0.419779        -1.190211
 H         4.175862         0.983979         1.357671
 H         3.431149         1.986206         0.010208
 H         0.791018         2.016947         1.973395
 H         3.165498        -0.851896         2.568077
 H         1.357694        -1.110516         2.219338
 H         2.360160        -2.134209         0.303339
