19
Iteration:  3971charge 0 multiplicity 1
 C        -0.096892        -0.385324         0.038109
 C         1.389918        -0.132312         0.033735
 O         2.092203         0.099339        -1.180813
 C         3.241689        -0.252997        -0.471384
 C         3.369807         1.089103         0.281413
 C         2.114800         0.796023         1.163947
 O         1.506866         1.798899         1.853311
 C         2.503106        -0.436899         1.944544
 C         2.459688        -1.074192         0.568914
 H        -0.508252        -0.811964         0.972207
 H        -0.651096         0.545887         0.025759
 H        -0.159012        -0.973058        -0.830121
 H         4.122841        -0.577453        -1.050468
 H         4.361919         1.257742         0.776082
 H         3.027905         1.849667        -0.438955
 H         2.208838         2.307032         2.233000
 H         3.434649        -0.627356         2.409291
 H         1.631239        -0.629386         2.586757
 H         2.163380        -2.175694         0.317049
