19
Iteration:  1576charge 0 multiplicity 1
 C        -0.089034        -0.002498        -0.159079
 C         1.409105        -0.048490         0.070681
 O         2.096226         0.139942        -1.171283
 C         3.332228        -0.195972        -0.416122
 C         3.354263         1.079219         0.390509
 C         2.138913         0.689451         1.240069
 O         1.524839         1.702963         1.992916
 C         2.414477        -0.669404         1.903575
 C         2.448674        -1.211808         0.448994
 H        -0.523161        -0.245123         0.776685
 H        -0.315810         0.949691        -0.555690
 H        -0.345455        -0.641127        -1.029638
 H         4.144953        -0.671024        -0.945613
 H         4.244236         1.296267         0.949117
 H         3.181350         1.987501        -0.143202
 H         0.837034         2.127923         1.380585
 H         3.430293        -0.587798         2.339063
 H         1.728588        -1.312479         2.477769
 H         2.585337        -2.302113         0.345281
