19
Iteration:  1887
 C        -0.099104         0.055845        -0.212930
 C         1.394544        -0.168576        -0.039265
 O         2.092572         0.102246        -1.214621
 C         3.291539        -0.182915        -0.483947
 C         3.377306         0.986076         0.458552
 C         2.108609         0.767254         1.268466
 O         1.496392         1.708025         2.115974
 C         2.545919        -0.632647         1.884124
 C         2.459680        -1.180354         0.490423
 H        -0.655420        -0.224951         0.683457
 H        -0.296952         1.182561        -0.406540
 H        -0.499933        -0.553209        -1.000144
 H         4.112109        -0.446351        -1.205830
 H         4.148771         1.149160         1.217350
 H         3.201693         1.926661        -0.146702
 H         0.822441         1.981743         1.456014
 H         3.627286        -0.699363         2.273583
 H         1.744495        -1.045835         2.639885
 H         2.439859        -2.200561         0.166794
