19
Iteration:  2434
 C        -0.144431        -0.255475         0.073923
 C         1.372833        -0.105115         0.055647
 O         1.988695         0.246778        -1.211604
 C         3.268107        -0.192673        -0.456359
 C         3.467116         1.098639         0.482005
 C         2.209760         0.705629         1.191739
 O         1.601444         1.908010         1.711027
 C         2.486182        -0.707162         1.909310
 C         2.467760        -1.199138         0.497013
 H        -0.478591        -0.691023         0.999860
 H        -0.607631         0.783571         0.048642
 H        -0.515002        -0.825457        -0.817580
 H         4.008951        -0.333837        -1.222454
 H         4.369178         1.042102         1.154581
 H         3.342223         1.900464        -0.250732
 H         0.823491         1.720985         2.250934
 H         3.251157        -0.940567         2.647627
 H         1.541323        -1.174923         2.284372
 H         2.308717        -2.305541         0.340905
