19
Iteration:    55
 C         0.007897        -0.109928        -0.042548
 C         1.508335        -0.009517         0.093272
 O         2.071877         0.152710        -1.172718
 C         3.379432        -0.273882        -0.432373
 C         3.529119         1.041229         0.402737
 C         2.184095         0.805076         1.205729
 O         1.463814         1.851228         1.792538
 C         2.230520        -0.705185         1.914508
 C         2.371879        -1.201316         0.492415
 H        -0.563757        -0.278358         0.851881
 H        -0.397112         0.802746        -0.452074
 H        -0.211516        -0.940917        -0.694917
 H         4.175746        -0.692780        -1.040140
 H         4.435345         1.140101         0.994602
 H         3.261616         1.840019        -0.290601
 H         0.966313         1.379520         2.485571
 H         2.822587        -1.044965         2.740156
 H         1.242742        -0.827862         2.177548
 H         2.175774        -2.211552         0.177454
