19
Iteration:  1400charge 0 multiplicity 1
 C        -0.084570         0.010531         0.043461
 C         1.404107        -0.193430        -0.024837
 O         2.062423         0.049893        -1.292165
 C         3.263744        -0.151415        -0.545427
 C         3.509205         1.047755         0.607681
 C         2.109668         0.694633         1.197641
 O         1.356567         1.807453         1.822531
 C         2.474193        -0.630002         1.882669
 C         2.548065        -1.169266         0.467855
 H        -0.430276        -0.167410         1.059516
 H        -0.009804         1.099119        -0.045249
 H        -0.538003        -0.558335        -0.787724
 H         4.126977        -0.396127        -1.266050
 H         4.384616         0.835241         1.248281
 H         3.497123         2.110082         0.270224
 H         1.466810         1.760077         2.823928
 H         3.214906        -0.465096         2.635865
 H         1.613433        -1.251442         2.298414
 H         2.277877        -2.215989         0.188185
