19
Iteration:  1255
 C        -0.101955        -0.088900        -0.030344
 C         1.413134        -0.142623        -0.006024
 O         2.120279         0.166485        -1.261381
 C         3.251984        -0.216658        -0.463713
 C         3.523263         1.003852         0.473238
 C         2.107892         0.739223         1.193660
 O         1.407269         1.707411         1.940625
 C         2.439669        -0.586313         1.922809
 C         2.424443        -1.122775         0.488840
 H        -0.325667        -0.444734         0.953771
 H        -0.390825         0.953042        -0.176588
 H        -0.556325        -0.683022        -0.776526
 H         4.066245        -0.522580        -1.240592
 H         4.225766         0.894207         1.299360
 H         3.826960         1.918554        -0.038941
 H         1.391341         2.477457         1.370323
 H         3.394978        -0.711493         2.438329
 H         1.643675        -0.935566         2.586725
 H         2.582191        -2.184374         0.249000
