19
Iteration:   705charge 0 multiplicity 1
 C         0.009707         0.059235         0.018472
 C         1.470257        -0.070376        -0.052999
 O         2.129163         0.094454        -1.279069
 C         3.326895        -0.241330        -0.425159
 C         3.445484         1.023731         0.468903
 C         2.151859         0.720849         1.216657
 O         1.445869         1.745159         1.886194
 C         2.344070        -0.668295         1.897494
 C         2.411625        -1.134002         0.493660
 H        -0.417208        -0.223167         0.971483
 H        -0.287098         1.066980        -0.175220
 H        -0.601305        -0.585238        -0.614573
 H         4.157979        -0.643557        -1.121812
 H         4.384558         1.114596         1.004839
 H         3.167555         1.972147        -0.026960
 H         0.615597         1.402218         2.193321
 H         3.185502        -0.824986         2.573030
 H         1.437257        -1.032057         2.332845
 H         2.252661        -2.180619         0.213179
