19
Iteration:   474
 C        -0.132524        -0.244305        -0.162954
 C         1.393101        -0.082405         0.013731
 O         2.147059         0.263281        -1.195435
 C         3.275951        -0.185104        -0.428635
 C         3.455319         0.954380         0.573189
 C         2.062871         0.673916         1.234894
 O         1.685438         1.821597         1.972317
 C         2.256239        -0.590934         1.916629
 C         2.396026        -1.156540         0.369889
 H        -0.522003        -0.693225         0.705921
 H        -0.459788         0.721454        -0.314091
 H        -0.340098        -0.821681        -1.030873
 H         4.139371        -0.444258        -0.998459
 H         4.266624         0.865228         1.276906
 H         3.494975         1.814934        -0.067523
 H         1.670218         2.603998         1.397306
 H         3.141603        -0.779490         2.436039
 H         1.432980        -1.026234         2.477492
 H         2.381749        -2.244853        -0.032189
