19
Iteration:   182charge 0 multiplicity 1
 C        -0.108632        -0.095114         0.080476
 C         1.432514        -0.036294        -0.026679
 O         2.241540         0.045413        -1.392462
 C         3.350766        -0.203322        -0.433770
 C         3.464030         1.010971         0.597908
 C         2.053793         0.655213         1.201820
 O         1.496841         1.891537         1.859026
 C         2.318627        -0.636924         1.913572
 C         2.373887        -1.143084         0.353880
 H        -0.385849        -0.320956         1.146010
 H        -0.608386         0.893550        -0.227364
 H        -0.618222        -0.912318        -0.547480
 H         4.232407        -0.377453        -1.028385
 H         4.400027         0.916754         1.238971
 H         3.386158         2.087245         0.330152
 H         1.240514         1.497343         2.736989
 H         3.323912        -0.490483         2.471099
 H         1.520514        -1.078981         2.661655
 H         2.087410        -2.044664        -0.036599
