19
Iteration:  4177charge 0 multiplicity 1
 C        -0.133732        -0.355423         0.097921
 C         1.381270        -0.176507         0.110059
 O         2.032188         0.104804        -1.253500
 C         3.296497        -0.191462        -0.504608
 C         3.448682         1.040254         0.351806
 C         2.138487         0.811700         1.258553
 O         1.468126         1.918319         1.716786
 C         2.499871        -0.481183         2.007311
 C         2.516995        -1.158526         0.437839
 H        -0.382046        -0.804967         1.073335
 H        -0.689140         0.635800         0.086046
 H        -0.426657        -0.951492        -0.719508
 H         4.122049        -0.531428        -1.156433
 H         4.305661         1.091614         1.020151
 H         3.376006         1.953992        -0.226328
 H         1.514947         1.798307         2.713591
 H         3.436100        -0.485056         2.489832
 H         1.616608        -0.923297         2.416661
 H         2.348925        -2.235412         0.245661
