19
Iteration:  1190
 C        -0.089985        -0.195512        -0.057433
 C         1.372404        -0.066159        -0.031773
 O         2.122238         0.206235        -1.220525
 C         3.310638        -0.236549        -0.392118
 C         3.437121         0.924936         0.567240
 C         2.127254         0.770649         1.239929
 O         1.539192         1.885877         1.854350
 C         2.460467        -0.597683         1.847852
 C         2.346156        -1.185440         0.418788
 H        -0.531438        -0.195054         0.902309
 H        -0.466175         0.703515        -0.457665
 H        -0.417654        -0.970652        -0.670295
 H         4.133635        -0.584291        -1.127874
 H         4.159156         1.072366         1.353568
 H         3.680612         1.769032        -0.095145
 H         0.804950         1.603397         2.418010
 H         3.442063        -0.775839         2.178998
 H         1.791173        -1.029483         2.562645
 H         2.261432        -2.250935         0.154221
