19
Iteration:  1929
 C        -0.075631        -0.120005        -0.101556
 C         1.382759        -0.021250         0.003131
 O         2.094560         0.268445        -1.164327
 C         3.330066        -0.241649        -0.450492
 C         3.440006         0.998146         0.441714
 C         2.176715         0.726273         1.255089
 O         1.499697         1.663787         2.016282
 C         2.398983        -0.620730         1.876009
 C         2.441358        -1.172158         0.410544
 H        -0.625790         0.060756         0.818475
 H        -0.421604         0.657283        -0.815051
 H        -0.437553        -1.033300        -0.485784
 H         4.230855        -0.402657        -1.050139
 H         4.419963         1.056062         0.948590
 H         3.290109         1.730391        -0.360071
 H         0.781696         2.184455         1.547709
 H         3.346236        -0.801493         2.443563
 H         1.444525        -0.944343         2.328443
 H         2.344088        -2.228628         0.263854
