19
Iteration:  1927charge 0 multiplicity 1
 C        -0.086468        -0.101757        -0.117197
 C         1.387445        -0.023582         0.001366
 O         2.090483         0.250643        -1.172051
 C         3.314754        -0.249717        -0.444160
 C         3.436411         1.007986         0.452312
 C         2.194068         0.726640         1.238672
 O         1.494989         1.660425         2.020894
 C         2.412766        -0.623437         1.883542
 C         2.447307        -1.142656         0.422356
 H        -0.637007         0.053265         0.846269
 H        -0.426514         0.639629        -0.805469
 H        -0.456000        -1.056617        -0.520327
 H         4.186519        -0.438459        -1.064716
 H         4.390626         1.070460         1.035674
 H         3.323562         1.707741        -0.349766
 H         0.768635         2.146709         1.576845
 H         3.347754        -0.859713         2.394725
 H         1.515556        -0.963504         2.327665
 H         2.355539        -2.219457         0.218893
