19
Iteration:  4088
 C        -0.130145        -0.267125         0.080363
 C         1.403821        -0.170335         0.089240
 O         2.056274         0.028342        -1.232212
 C         3.287654        -0.154908        -0.467661
 C         3.427715         1.075076         0.387008
 C         2.039874         0.738436         1.172092
 O         1.512458         1.765950         1.859463
 C         2.476410        -0.432570         1.870027
 C         2.559957        -1.100684         0.518574
 H        -0.445552        -0.026401         1.149840
 H        -0.625958         0.696268        -0.274264
 H        -0.456877        -1.165268        -0.347428
 H         4.052932        -0.633624        -1.068831
 H         4.318365         0.922300         1.042991
 H         3.407296         2.010717        -0.111070
 H         1.226807         2.518871         1.277193
 H         3.559446        -0.500036         2.227721
 H         1.629293        -0.907557         2.488826
 H         2.457143        -2.106632         0.257047
