19
Iteration:   327
 C        -0.197148        -0.168500        -0.120140
 C         1.299012        -0.019972        -0.008363
 O         2.176596         0.256130        -1.168143
 C         3.273920        -0.227181        -0.368714
 C         3.528379         0.950148         0.566919
 C         2.144628         0.757231         1.231041
 O         1.495739         1.883396         1.793291
 C         2.454166        -0.675061         1.879101
 C         2.396239        -1.210552         0.395145
 H        -0.563452        -0.584003         0.851023
 H        -0.674695         0.796528        -0.403855
 H        -0.290521        -0.980304        -0.853004
 H         4.031203        -0.708182        -1.012828
 H         4.422125         0.819393         1.219039
 H         3.650429         1.886380        -0.042272
 H         1.398452         1.609260         2.709321
 H         3.467163        -0.810040         2.393145
 H         1.633346        -1.128443         2.463186
 H         2.383452        -2.214304         0.241228
