19
Iteration:  2054
 C        -0.082427         0.019658        -0.029986
 C         1.374370        -0.187127        -0.049595
 O         2.110868         0.101295        -1.376528
 C         3.299033        -0.286730        -0.454810
 C         3.397683         1.049316         0.527798
 C         2.093310         0.750048         1.227929
 O         1.444095         1.790906         1.971535
 C         2.480567        -0.569050         1.918135
 C         2.489777        -1.197217         0.448051
 H        -0.680231        -0.544231         0.638349
 H        -0.318345         0.942156         0.329072
 H        -0.547421        -0.137085        -1.024061
 H         4.137689        -0.630468        -1.062221
 H         4.255355         1.240710         1.127897
 H         3.336913         1.878132        -0.133282
 H         1.240252         1.520848         2.907967
 H         3.446544        -0.311572         2.379244
 H         1.937923        -1.166813         2.671982
 H         2.687376        -2.238427         0.059139
