19
Iteration:  3022charge 0 multiplicity 1
 C        -0.077038        -0.364589         0.124859
 C         1.355700        -0.137883         0.024421
 O         2.015887         0.071075        -1.285236
 C         3.333328        -0.250397        -0.414384
 C         3.431245         1.090386         0.311130
 C         2.169307         0.858112         1.143262
 O         1.573351         1.832645         1.989848
 C         2.432589        -0.481707         1.896098
 C         2.435154        -1.098814         0.471653
 H        -0.534511        -0.553760         1.122955
 H        -0.535075         0.523086        -0.301439
 H        -0.344374        -1.191660        -0.570319
 H         4.081440        -0.718548        -1.020362
 H         4.204764         1.197094         1.034367
 H         3.366879         1.876549        -0.436601
 H         1.297423         2.549519         1.319480
 H         3.225447        -0.754688         2.556010
 H         1.544882        -0.797497         2.472813
 H         2.311797        -2.191178         0.340630
