19
Iteration:  4139charge 0 multiplicity 1
 C        -0.109669        -0.344261         0.019232
 C         1.390654        -0.119030         0.184289
 O         2.017611         0.066815        -1.218231
 C         3.286193        -0.222747        -0.515814
 C         3.414923         1.118595         0.378253
 C         2.171750         0.795238         1.165615
 O         1.475520         1.817592         1.802562
 C         2.531948        -0.448397         1.943475
 C         2.420530        -1.161987         0.473489
 H        -0.620667        -0.808000         0.903740
 H        -0.622882         0.585593        -0.085550
 H        -0.223155        -1.164640        -0.829382
 H         4.180650        -0.403012        -1.127947
 H         4.333542         1.253216         0.969836
 H         3.430229         1.947782        -0.400163
 H         1.916701         2.491099         2.304883
 H         3.382206        -0.573007         2.705313
 H         1.771401        -0.879404         2.668905
 H         2.285836        -2.231570         0.226813
