19
Iteration:   698charge 0 multiplicity 1
 C        -0.022296         0.017943         0.009032
 C         1.427586        -0.057555        -0.030400
 O         2.140821         0.071462        -1.277288
 C         3.289876        -0.193217        -0.484245
 C         3.446377         0.999618         0.538021
 C         2.115008         0.686267         1.251314
 O         1.493384         1.770447         1.856052
 C         2.316252        -0.646703         1.905476
 C         2.462035        -1.132872         0.472542
 H        -0.406371        -0.201698         1.013902
 H        -0.312440         1.084048        -0.266661
 H        -0.426609        -0.500755        -0.904854
 H         4.136635        -0.468903        -1.252067
 H         4.450134         1.098025         1.058597
 H         3.284495         1.916531        -0.087570
 H         0.748380         1.451877         2.346848
 H         3.217108        -0.816198         2.525674
 H         1.461753        -1.133211         2.411347
 H         2.293354        -2.205229         0.422301
