19
Iteration:  2553charge 0 multiplicity 1
 C        -0.109592        -0.022753         0.107009
 C         1.340977        -0.141538        -0.000784
 O         1.943823         0.024594        -1.285320
 C         3.285982        -0.178130        -0.424920
 C         3.464215         1.122530         0.439043
 C         2.148024         0.770120         1.162725
 O         1.469961         1.790056         1.782204
 C         2.613545        -0.634227         1.951912
 C         2.522312        -1.185544         0.460676
 H        -0.490953         0.033043         1.109042
 H        -0.526729         0.868991        -0.548946
 H        -0.704528        -0.939087        -0.213016
 H         4.168269        -0.513659        -0.961218
 H         4.245921         0.932303         1.178498
 H         3.460620         2.057903        -0.108310
 H         0.892463         1.440763         2.512835
 H         3.622853        -0.627087         2.415902
 H         1.761655        -1.006728         2.584224
 H         2.767572        -2.268207         0.194015
