19
Iteration:  1912
 C        -0.141802        -0.021800        -0.180270
 C         1.361446        -0.064335         0.019708
 O         2.098607         0.097632        -1.293695
 C         3.263537        -0.168774        -0.453113
 C         3.521264         1.109596         0.496959
 C         2.116450         0.769067         1.224036
 O         1.498895         1.648813         2.064798
 C         2.581966        -0.691557         1.900095
 C         2.364033        -1.146348         0.478590
 H        -0.693141         0.034904         0.778473
 H        -0.413984         0.891555        -0.780356
 H        -0.460051        -0.983016        -0.723475
 H         4.030678        -0.782924        -0.970224
 H         4.289958         1.007231         1.273969
 H         3.593949         2.164684         0.132260
 H         0.696504         1.934265         1.516258
 H         3.548394        -0.668542         2.417963
 H         1.750695        -0.999371         2.592158
 H         2.304044        -2.197945         0.071501
