19
Iteration:  2720charge 0 multiplicity 1
 C        -0.103518        -0.024183         0.136910
 C         1.364489        -0.128533        -0.014999
 O         2.009851         0.061806        -1.173025
 C         3.259195        -0.150968        -0.472992
 C         3.382110         1.082832         0.406489
 C         2.103363         0.669096         1.202962
 O         1.504659         1.814867         1.659595
 C         2.594292        -0.638969         1.942461
 C         2.578015        -1.169493         0.501328
 H        -0.371671        -0.384321         1.236102
 H        -0.445306         0.982659        -0.096922
 H        -0.684529        -0.805375        -0.445986
 H         4.066587        -0.575041        -1.052810
 H         4.226415         1.168121         1.172919
 H         3.150564         1.987632        -0.176740
 H         0.730924         1.557044         2.218528
 H         3.528438        -0.634956         2.517338
 H         1.755059        -1.032127         2.586600
 H         2.684656        -2.189417         0.290286
