19
Iteration:  1975charge 0 multiplicity 1
 C        -0.149851        -0.284807         0.036825
 C         1.366954        -0.040232         0.030219
 O         2.079473         0.241523        -1.290339
 C         3.331322        -0.080153        -0.414487
 C         3.540878         0.948608         0.647710
 C         2.113770         0.651834         1.250651
 O         1.501707         1.879429         1.861437
 C         2.396670        -0.661360         1.779738
 C         2.406871        -1.164556         0.351651
 H        -0.549211        -0.433008         1.001816
 H        -0.834870         0.433631        -0.497981
 H        -0.283777        -1.238395        -0.441461
 H         4.168190        -0.505526        -0.995318
 H         4.279236         0.537911         1.299339
 H         3.605796         1.999390         0.291210
 H         2.238052         2.525631         2.058819
 H         3.251251        -0.586942         2.484784
 H         1.436548        -1.205124         2.111003
 H         2.313241        -2.108175        -0.168081
