19
Iteration:  4649
 C        -0.136088        -0.345840         0.111452
 C         1.383643        -0.215178        -0.003576
 O         1.944328         0.138552        -1.199139
 C         3.332005        -0.157369        -0.455288
 C         3.415223         1.065632         0.427745
 C         2.133142         0.801526         1.192716
 O         1.441506         1.904661         1.775464
 C         2.588574        -0.555967         1.943588
 C         2.526144        -1.176082         0.496791
 H        -0.522327        -0.430062         1.104306
 H        -0.620993         0.516484        -0.410443
 H        -0.425483        -1.271316        -0.461638
 H         4.054362        -0.445604        -1.157896
 H         4.350881         0.959346         0.953804
 H         3.354571         1.941743        -0.267705
 H         2.049920         2.634356         1.746206
 H         3.495382        -0.523445         2.619179
 H         1.615867        -1.001829         2.386881
 H         2.560536        -2.290973         0.177619
