19
Iteration:  1678
 C        -0.166635        -0.164895         0.031146
 C         1.352515        -0.157534         0.026444
 O         2.116445         0.249080        -1.217220
 C         3.316424        -0.096092        -0.404466
 C         3.454604         1.009689         0.561847
 C         2.143178         0.704730         1.256595
 O         1.512298         1.833443         1.732539
 C         2.426416        -0.686864         1.835298
 C         2.442058        -1.185981         0.369208
 H        -0.768794        -0.483941         0.919311
 H        -0.599029         0.811111        -0.290609
 H        -0.315704        -1.031327        -0.627976
 H         4.128234        -0.378572        -1.040631
 H         4.130229         0.582159         1.347279
 H         3.603650         1.972972         0.115851
 H         1.664740         1.949459         2.657185
 H         3.389920        -0.768160         2.438480
 H         1.575022        -1.018801         2.435543
 H         2.514653        -2.245638         0.149392
