19
Iteration:  1706charge 0 multiplicity 1
 C        -0.013710         0.041553        -0.018869
 C         1.430465        -0.110499         0.033845
 O         2.047805         0.166013        -1.266505
 C         3.357565        -0.225613        -0.491553
 C         3.427655         1.036575         0.398187
 C         2.123790         0.700387         1.254720
 O         1.359879         1.699241         1.896103
 C         2.423098        -0.637062         1.949867
 C         2.533553        -1.159179         0.422289
 H        -0.544147        -0.050188         0.911700
 H        -0.323087         0.979375        -0.485304
 H        -0.437219        -0.829002        -0.632464
 H         4.082568        -0.587076        -1.242048
 H         4.195517         0.941929         1.177156
 H         3.557397         1.967634        -0.199762
 H         1.494315         1.720646         2.871401
 H         3.221202        -0.618212         2.740247
 H         1.543439        -1.109655         2.416710
 H         2.301968        -2.235998         0.252534
