19
Iteration:  1699charge 0 multiplicity 1
 C        -0.053300        -0.045185        -0.066651
 C         1.436916        -0.150416        -0.021833
 O         2.023786         0.187131        -1.222242
 C         3.325952        -0.202027        -0.535679
 C         3.506628         1.031144         0.502098
 C         2.096929         0.735178         1.236147
 O         1.378886         1.767645         1.857161
 C         2.430769        -0.691809         1.926735
 C         2.519532        -1.165924         0.468253
 H        -0.361932        -0.016576         1.025976
 H        -0.164976         1.017124        -0.290021
 H        -0.742117        -0.773145        -0.543168
 H         4.053007        -0.466600        -1.271774
 H         4.380520         0.887179         1.212001
 H         3.389820         1.929853        -0.050221
 H         1.646990         1.635346         2.826650
 H         3.237448        -0.488418         2.703888
 H         1.544099        -1.139514         2.388147
 H         2.414916        -2.215721         0.193915
