19
Iteration:  1727charge 0 multiplicity 1
 C        -0.090460         0.020694        -0.078157
 C         1.386655        -0.033397         0.029464
 O         2.180748         0.089012        -1.238584
 C         3.275950        -0.227326        -0.400698
 C         3.463546         1.107214         0.416294
 C         2.216967         0.792375         1.199620
 O         1.338035         1.588535         1.938179
 C         2.506546        -0.649139         1.837516
 C         2.350615        -1.145136         0.487449
 H        -0.547556         0.008309         0.898781
 H        -0.352625         1.034719        -0.435795
 H        -0.617260        -0.805937        -0.617245
 H         4.165331        -0.591571        -1.017032
 H         4.431250         1.288993         0.860725
 H         3.104593         1.857205        -0.338009
 H         1.759851         1.539548         2.841742
 H         3.424467        -0.673748         2.419805
 H         1.729431        -0.873087         2.581096
 H         2.287614        -2.236513         0.184191
