19
Iteration:   984
 C        -0.199887        -0.407145        -0.313828
 C         1.271365        -0.105175        -0.012398
 O         2.074191         0.270837        -1.161116
 C         3.272740        -0.238409        -0.429016
 C         3.456693         0.947482         0.479401
 C         2.135449         0.796800         1.206171
 O         1.811052         1.938541         1.995717
 C         2.373023        -0.528673         1.909583
 C         2.363764        -1.140616         0.523552
 H        -0.681063        -0.934225         0.512069
 H        -0.733807         0.499123        -0.600984
 H        -0.034990        -1.057264        -1.123557
 H         4.140237        -0.563716        -1.074157
 H         4.339357         0.851181         1.132997
 H         3.505942         1.894532        -0.074596
 H         1.076844         1.616191         2.614699
 H         3.210314        -0.599897         2.542683
 H         1.531928        -0.914696         2.526732
 H         2.416784        -2.238406         0.304906
