19
Iteration:  3277charge 0 multiplicity 1
 C        -0.252009        -0.246208        -0.012934
 C         1.348548        -0.162784         0.105948
 O         1.971727        -0.002850        -1.143379
 C         3.265821        -0.172007        -0.497446
 C         3.388661         1.105885         0.380701
 C         2.130955         0.740450         1.176338
 O         1.506248         1.882098         1.828036
 C         2.578486        -0.561583         1.991680
 C         2.630756        -1.127307         0.465162
 H        -0.605927        -0.631892         0.924407
 H        -0.444740         0.797473        -0.206924
 H        -0.403975        -0.925931        -0.887489
 H         4.075263        -0.442036        -1.189079
 H         4.304955         1.083994         1.019703
 H         3.467590         2.063382        -0.134583
 H         1.999009         2.652491         1.434612
 H         3.462748        -0.583568         2.657027
 H         1.716775        -1.034911         2.470819
 H         2.682817        -2.190944         0.121238
