19
Iteration:  4789
 C        -0.079144        -0.348260         0.120082
 C         1.409445        -0.179902         0.073890
 O         1.975244         0.082636        -1.234906
 C         3.229675        -0.140638        -0.566153
 C         3.445935         1.107570         0.411678
 C         2.187796         0.814544         1.185034
 O         1.460609         1.775562         1.739218
 C         2.496391        -0.471860         1.970489
 C         2.483692        -1.149553         0.543212
 H        -0.413816        -0.869416         0.982596
 H        -0.514591         0.674749         0.242774
 H        -0.455125        -0.976922        -0.724770
 H         4.048273        -0.394532        -1.165147
 H         4.343836         0.897105         0.963809
 H         3.514842         2.020159        -0.294223
 H         1.938650         2.444173         2.269910
 H         3.363939        -0.609716         2.543042
 H         1.605211        -0.518926         2.509571
 H         2.507973        -2.205276         0.210291
