19
Iteration:  2973
 C        -0.126313        -0.494411        -0.223480
 C         1.320319        -0.129165         0.077137
 O         1.926545         0.076846        -1.206831
 C         3.183592        -0.192477        -0.445787
 C         3.392051         1.098689         0.336483
 C         2.183201         0.857110         1.221537
 O         1.731844         1.939349         2.043776
 C         2.499847        -0.489590         1.935624
 C         2.482896        -1.188409         0.578120
 H        -0.831239        -0.476570         0.638283
 H        -0.534832         0.343380        -0.860538
 H        -0.232985        -1.421942        -0.787341
 H         4.008806        -0.655250        -1.060920
 H         4.423956         1.234795         0.772754
 H         3.043952         1.882345        -0.371528
 H         1.882178         2.661505         1.446764
 H         3.406612        -0.373714         2.637096
 H         1.667022        -0.947735         2.526368
 H         2.411707        -2.265792         0.398361
