19
Iteration:  4675charge 0 multiplicity 1
 C        -0.132993        -0.325358         0.094701
 C         1.346655        -0.127692         0.072131
 O         2.060841         0.073251        -1.262112
 C         3.278348        -0.154880        -0.469269
 C         3.330966         1.116572         0.447914
 C         2.098686         0.751419         1.208534
 O         1.519232         1.817870         1.822264
 C         2.591674        -0.527054         1.928406
 C         2.496209        -1.145953         0.462767
 H        -0.646797        -0.189853         1.129289
 H        -0.613691         0.418826        -0.508546
 H        -0.289667        -1.345443        -0.201441
 H         4.038844        -0.516819        -1.203657
 H         4.386079         1.092791         0.918892
 H         3.351296         2.014665        -0.139304
 H         1.827803         2.540867         1.271730
 H         3.484675        -0.384201         2.549349
 H         1.710656        -0.935137         2.434565
 H         2.357910        -2.222515         0.317752
