19
Iteration:  4356charge 0 multiplicity 1
 C        -0.090532        -0.322641         0.105996
 C         1.396768        -0.195831         0.094255
 O         1.993454         0.137213        -1.198551
 C         3.218820        -0.182268        -0.545350
 C         3.459986         1.077137         0.336485
 C         2.209249         0.813654         1.205529
 O         1.358625         1.823046         1.701134
 C         2.585494        -0.484252         1.943225
 C         2.471936        -1.146542         0.536644
 H        -0.113669        -0.877926         1.038163
 H        -0.579431         0.629258         0.104599
 H        -0.583893        -1.023765        -0.622090
 H         4.034873        -0.488179        -1.177986
 H         4.345152         0.930752         0.986768
 H         3.533876         1.889061        -0.452177
 H         1.674645         2.106118         2.605488
 H         3.499319        -0.413787         2.502755
 H         1.908312        -0.710802         2.759921
 H         2.621141        -2.333744         0.552060
