19
Iteration:  2051charge 0 multiplicity 1
 C        -0.072859         0.032740        -0.039131
 C         1.372611        -0.196104        -0.062851
 O         2.099892         0.092403        -1.377729
 C         3.286215        -0.276964        -0.435495
 C         3.425583         1.047536         0.516077
 C         2.067097         0.746811         1.254357
 O         1.437514         1.786871         1.975484
 C         2.487891        -0.557218         1.910800
 C         2.491051        -1.205585         0.425317
 H        -0.653299        -0.621943         0.587619
 H        -0.395690         1.046368         0.369691
 H        -0.501931        -0.211145        -0.976293
 H         4.118657        -0.628036        -1.051908
 H         4.366206         1.138128         1.085030
 H         3.386582         1.972373        -0.106102
 H         1.287577         1.546166         2.922456
 H         3.436414        -0.272827         2.396247
 H         1.912515        -1.131588         2.698922
 H         2.754851        -2.225820         0.144607
