19
Iteration:  4060
 C        -0.081657        -0.316182         0.088479
 C         1.456482        -0.129241         0.103772
 O         2.023805         0.140876        -1.250783
 C         3.269505        -0.242450        -0.501002
 C         3.495478         1.070473         0.342737
 C         2.201798         0.809143         1.248650
 O         1.399433         1.864259         1.876604
 C         2.513307        -0.501992         1.948547
 C         2.473264        -1.200797         0.515705
 H        -0.509659        -0.271401         1.096823
 H        -0.492938         0.470311        -0.555691
 H        -0.382724        -1.280833        -0.425122
 H         4.025146        -0.692853        -1.216139
 H         4.480659         1.143872         0.818647
 H         3.267327         1.938168        -0.363041
 H         0.749243         2.102197         1.207906
 H         3.454609        -0.672907         2.359355
 H         1.585170        -0.654261         2.446835
 H         2.122929        -2.249900         0.136360
