19
Iteration:  2753charge 0 multiplicity 1
 C        -0.035125        -0.255941         0.104775
 C         1.416616        -0.049300         0.080059
 O         1.998602         0.148435        -1.135298
 C         3.257358        -0.177670        -0.532889
 C         3.497508         1.035295         0.339217
 C         2.121026         0.745876         1.158153
 O         1.480723         1.871189         1.819541
 C         2.506512        -0.608891         1.920327
 C         2.447228        -1.161587         0.482072
 H        -0.523546        -0.089999         1.181020
 H        -0.609310         0.386683        -0.553665
 H        -0.290879        -1.285575        -0.230548
 H         3.950109        -0.747831        -1.121571
 H         4.406107         1.012980         0.981945
 H         3.719792         1.927967        -0.235621
 H         0.567897         1.690429         1.664012
 H         3.480174        -0.717047         2.415162
 H         1.658524        -0.884926         2.598435
 H         2.445418        -2.152984         0.205130
