19
Iteration:  4024
 C        -0.176903        -0.352538         0.000894
 C         1.328702        -0.227391         0.049654
 O         1.989355         0.111614        -1.275509
 C         3.275144        -0.196348        -0.496120
 C         3.437589         1.102364         0.458711
 C         2.144925         0.777875         1.189674
 O         1.571979         1.891941         1.871948
 C         2.511922        -0.469717         1.930264
 C         2.548959        -1.189754         0.515567
 H        -0.549656        -0.479851         1.114348
 H        -0.697728         0.662060        -0.322335
 H        -0.529809        -1.191725        -0.529652
 H         4.239204        -0.441029        -0.948289
 H         4.384749         1.089392         1.105403
 H         3.435199         2.046846        -0.095661
 H         1.153005         2.352277         1.155228
 H         3.439023        -0.547615         2.560531
 H         1.793983        -0.774303         2.750523
 H         2.512160        -2.328779         0.352916
