19
Iteration:  4344charge 0 multiplicity 1
 C        -0.023777        -0.392967         0.180404
 C         1.411896        -0.109574         0.083380
 O         1.985590         0.193023        -1.217841
 C         3.185388        -0.269880        -0.478233
 C         3.457152         1.061564         0.339992
 C         2.189050         0.798708         1.139721
 O         1.371768         1.833410         1.720335
 C         2.573203        -0.422987         1.940150
 C         2.505262        -1.222386         0.534225
 H        -0.531096        -0.698538         1.040289
 H        -0.523950         0.597259         0.000573
 H        -0.205070        -0.996618        -0.762614
 H         3.902096        -0.689237        -1.207649
 H         4.370065         1.215841         0.911960
 H         3.246722         2.090484        -0.151519
 H         1.782416         2.125634         2.566812
 H         3.485722        -0.385883         2.479125
 H         1.658348        -0.786159         2.403547
 H         2.517743        -2.424671         0.269417
