19
Iteration:  1220charge 0 multiplicity 1
 C        -0.054070        -0.001968         0.098927
 C         1.401287        -0.057990         0.049419
 O         2.161555         0.145425        -1.182809
 C         3.316594        -0.167207        -0.477371
 C         3.433673         1.043285         0.460073
 C         2.145475         0.692529         1.238322
 O         1.475001         1.749729         1.751228
 C         2.351312        -0.745404         1.928964
 C         2.496021        -1.140208         0.443035
 H        -0.515479        -0.089981         1.104229
 H        -0.414334         1.035046        -0.222916
 H        -0.613831        -0.771595        -0.513202
 H         4.075358        -0.583608        -1.209162
 H         4.172162         1.053919         1.261582
 H         3.308171         1.928368        -0.158349
 H         0.614142         1.748860         1.312041
 H         3.211642        -1.089125         2.642029
 H         1.376301        -1.115222         2.278974
 H         2.534182        -2.136265        -0.012370
