19
Iteration:  1088charge 0 multiplicity 1
 C        -0.091729        -0.085673        -0.049866
 C         1.412735        -0.050248         0.093006
 O         2.066206         0.184954        -1.201875
 C         3.324493        -0.233221        -0.468515
 C         3.556876         0.960438         0.424028
 C         2.227702         0.779756         1.231053
 O         1.395593         1.824103         1.814811
 C         2.338070        -0.672815         1.916843
 C         2.425259        -1.171972         0.492425
 H        -0.479227        -0.491968         0.891127
 H        -0.262156         0.913088        -0.487744
 H        -0.243125        -0.812975        -0.908218
 H         4.046564        -0.622453        -1.179950
 H         4.475746         0.889864         1.038007
 H         3.555160         1.877023        -0.183860
 H         1.280605         1.501197         2.712687
 H         3.224332        -0.932505         2.597059
 H         1.340101        -0.780275         2.335001
 H         2.355606        -2.215464         0.182288
