19
Iteration:  3398
 C        -0.062463        -0.148011         0.029555
 C         1.443811        -0.127241         0.055637
 O         1.982543         0.108805        -1.212610
 C         3.220888        -0.237438        -0.491760
 C         3.471891         1.130895         0.282669
 C         2.195216         0.748579         1.244799
 O         1.440377         1.688763         1.842926
 C         2.555421        -0.531479         1.984586
 C         2.416485        -1.144398         0.621245
 H        -0.498109        -0.309633         0.988929
 H        -0.451414         0.822380        -0.388154
 H        -0.303389        -1.072179        -0.674501
 H         4.001266        -0.544853        -1.137457
 H         4.501730         1.415658         0.575227
 H         3.238740         1.927754        -0.443754
 H         1.018162         2.255154         1.215028
 H         3.549199        -0.583408         2.526281
 H         1.750252        -0.945954         2.555664
 H         2.534204        -2.244246         0.457527
