19
Iteration:  2450
 C        -0.074584        -0.355640         0.062970
 C         1.408185        -0.116304         0.103864
 O         2.031517         0.228848        -1.148680
 C         3.264856        -0.080458        -0.540424
 C         3.411520         1.025252         0.396671
 C         2.140610         0.726740         1.220762
 O         1.758024         1.905242         1.772992
 C         2.299765        -0.625804         1.931264
 C         2.422360        -1.209127         0.437729
 H        -0.463214        -1.047017         0.895269
 H        -0.786280         0.445364         0.166217
 H        -0.239694        -0.837934        -0.896871
 H         4.076890        -0.564466        -1.175861
 H         4.326287         1.088656         0.971297
 H         3.277587         2.049893        -0.028319
 H         0.791867         1.787136         2.018281
 H         3.159170        -0.668028         2.646480
 H         1.401101        -0.797609         2.583116
 H         2.368955        -2.189444        -0.052337
