19
Iteration:  1708charge 0 multiplicity 1
 C        -0.014661         0.058438        -0.006860
 C         1.432660        -0.093459         0.050822
 O         2.060696         0.158696        -1.272728
 C         3.356268        -0.226248        -0.483529
 C         3.407993         1.034889         0.373740
 C         2.129312         0.689758         1.249434
 O         1.356149         1.682878         1.903247
 C         2.420259        -0.617135         1.947589
 C         2.528305        -1.162608         0.417552
 H        -0.579688        -0.047649         0.918002
 H        -0.345841         0.912604        -0.537125
 H        -0.361781        -0.813141        -0.686210
 H         4.089595        -0.592302        -1.165925
 H         4.223348         0.985942         1.160058
 H         3.581677         1.930496        -0.178215
 H         1.470259         1.736224         2.903033
 H         3.274598        -0.683496         2.735698
 H         1.539151        -1.088423         2.401239
 H         2.320686        -2.231438         0.241855
