19
Iteration:  3120charge 0 multiplicity 1
 C        -0.109036        -0.363298         0.062884
 C         1.335290        -0.024822         0.062458
 O         2.056613         0.000008        -1.202198
 C         3.311246        -0.241338        -0.505484
 C         3.439176         1.082100         0.263973
 C         2.134288         0.848110         1.115728
 O         1.508428         1.781394         1.980368
 C         2.473820        -0.459953         1.871397
 C         2.456003        -1.095143         0.578213
 H        -0.574736        -0.787582         1.008114
 H        -0.700284         0.503002        -0.198925
 H        -0.248215        -1.064775        -0.747795
 H         4.040930        -0.455125        -1.287226
 H         4.356186         1.162665         0.819220
 H         3.363375         1.806768        -0.543507
 H         2.125578         2.537300         2.219815
 H         3.278065        -0.481005         2.550303
 H         1.635319        -0.776499         2.505720
 H         2.197201        -2.119839         0.309547
