19
Iteration:   635charge 0 multiplicity 1
 C        -0.012503        -0.426253        -0.207310
 C         1.384139         0.091198        -0.015193
 O         2.056526         0.243448        -1.227340
 C         3.247242        -0.263726        -0.487964
 C         3.475290         0.933344         0.516469
 C         2.137784         0.777470         1.248523
 O         1.749807         1.894472         1.988048
 C         2.305009        -0.622576         1.927022
 C         2.286916        -1.005746         0.498184
 H        -0.410803        -1.110195         0.577147
 H        -0.681850         0.459889        -0.504452
 H        -0.121230        -0.998307        -1.202307
 H         4.053379        -0.724723        -0.952674
 H         4.318687         0.882003         1.229557
 H         3.631084         1.779189        -0.149626
 H         0.940961         1.583667         2.355806
 H         3.159370        -0.930295         2.564629
 H         1.367775        -1.100377         2.403801
 H         1.970642        -2.053722         0.226406
