19
Iteration:  2345
 C        -0.120740        -0.204386        -0.125889
 C         1.379171        -0.157173        -0.072827
 O         2.029248         0.114904        -1.275587
 C         3.194063        -0.196174        -0.452820
 C         3.359313         1.054283         0.492217
 C         2.099281         0.724255         1.285908
 O         1.705648         1.910489         1.971399
 C         2.491299        -0.584322         1.925023
 C         2.459919        -1.137703         0.451754
 H        -0.530555        -0.129851         0.887234
 H        -0.422350         0.693119        -0.807107
 H        -0.516633        -1.070903        -0.649637
 H         3.931798        -0.661477        -1.042423
 H         4.353796         0.895746         1.084967
 H         3.230962         2.045655        -0.015628
 H         1.112416         1.532885         2.663067
 H         3.487767        -0.558430         2.455071
 H         1.733650        -1.155040         2.524175
 H         2.523202        -2.197959         0.197054
