19
Iteration:  4908charge 0 multiplicity 1
 C        -0.094684        -0.337113         0.068957
 C         1.354205        -0.178818         0.107339
 O         2.007827         0.102831        -1.208101
 C         3.277192        -0.161556        -0.433185
 C         3.412195         1.133018         0.220256
 C         2.143879         0.836183         1.177223
 O         1.478146         1.722305         1.898759
 C         2.596783        -0.460153         1.854489
 C         2.436892        -1.155466         0.555815
 H        -0.452584        -0.240136         1.065309
 H        -0.549226         0.531498        -0.507256
 H        -0.321297        -1.412205        -0.247444
 H         3.968298        -0.737290        -0.943669
 H         4.248782         1.156657         0.908772
 H         3.363752         1.971818        -0.567456
 H         1.591357         2.650406         1.735831
 H         3.608405        -0.532858         2.316741
 H         1.829400        -0.699331         2.606745
 H         2.420717        -2.228981         0.444662
