19
Iteration:  1435
 C        -0.132023        -0.182550        -0.119669
 C         1.393322        -0.099721         0.046100
 O         2.129281         0.209437        -1.138223
 C         3.292635        -0.255515        -0.429650
 C         3.455287         1.136159         0.435385
 C         2.179374         0.752588         1.188946
 O         1.491265         1.741507         1.894629
 C         2.462884        -0.646778         1.875546
 C         2.381756        -1.195227         0.456643
 H        -0.764171        -0.720553         0.594560
 H        -0.600062         0.807180        -0.297714
 H        -0.502961        -0.585441        -1.149547
 H         4.059972        -0.709510        -1.026527
 H         4.447606         1.438269         0.936982
 H         3.178040         1.942400        -0.268808
 H         1.931518         1.948017         2.771362
 H         3.361722        -0.632969         2.503528
 H         1.555019        -0.803959         2.508024
 H         2.015675        -2.229207         0.359660
