19
Iteration:  4074
 C        -0.110258        -0.252281         0.106787
 C         1.366669        -0.114975        -0.006333
 O         2.008825         0.059822        -1.251981
 C         3.283171        -0.196814        -0.475561
 C         3.472709         1.079304         0.373093
 C         2.191606         0.841101         1.122672
 O         1.440367         1.806247         1.880859
 C         2.549326        -0.574325         1.964471
 C         2.469886        -1.125941         0.531879
 H        -0.446561        -0.317012         1.128288
 H        -0.585602         0.449885        -0.512492
 H        -0.451812        -1.270544        -0.306633
 H         4.135433        -0.454095        -1.111403
 H         4.286160         1.079301         1.074601
 H         3.614306         1.962227        -0.246389
 H         0.881635         2.291370         1.242802
 H         3.311369        -0.516058         2.747018
 H         1.782367        -0.994445         2.584737
 H         2.612470        -2.182152         0.404520
