19
Iteration:  3512
 C        -0.117471        -0.351875         0.039824
 C         1.312093        -0.122411         0.077889
 O         1.995777         0.087994        -1.203388
 C         3.288170        -0.210392        -0.499848
 C         3.460369         1.059485         0.434993
 C         2.121012         0.845086         1.168480
 O         1.533343         1.862520         1.786464
 C         2.494179        -0.515642         1.878090
 C         2.444316        -1.104622         0.504747
 H        -0.434082        -0.892487         1.040623
 H        -0.755153         0.523811        -0.271582
 H        -0.300515        -1.211161        -0.572375
 H         4.187882        -0.559359        -1.144526
 H         4.320634         0.969626         1.160491
 H         3.675221         2.081495        -0.009688
 H         1.940790         2.088966         2.604636
 H         3.549817        -0.569537         2.082246
 H         1.897258        -0.901286         2.789572
 H         2.415995        -2.149467         0.205607
