19
Iteration:  4242charge 0 multiplicity 1
 C        -0.087612        -0.262593         0.054731
 C         1.382522        -0.163731         0.067617
 O         1.989369         0.026002        -1.192775
 C         3.223077        -0.183279        -0.460248
 C         3.438490         1.102492         0.337627
 C         2.152350         0.777164         1.162213
 O         1.499088         1.820934         1.877557
 C         2.573273        -0.493379         1.905434
 C         2.511049        -1.111406         0.522067
 H        -0.433198        -0.513552         1.073673
 H        -0.634915         0.506743        -0.562675
 H        -0.377757        -1.120135        -0.478888
 H         4.104145        -0.545492        -1.031547
 H         4.282838         0.977299         0.992751
 H         3.428958         1.940308        -0.314686
 H         0.694554         2.211968         1.510052
 H         3.603375        -0.341980         2.302967
 H         1.849554        -0.747508         2.705530
 H         2.355953        -2.125083         0.249011
