19
Iteration:   793charge 0 multiplicity 1
 C        -0.176300        -0.376734        -0.148984
 C         1.365831        -0.050301        -0.019300
 O         2.116870         0.319395        -1.192479
 C         3.258288        -0.215833        -0.363017
 C         3.434860         0.994992         0.485845
 C         2.110296         0.751830         1.223768
 O         1.707052         1.870733         1.885291
 C         2.319482        -0.635999         1.921499
 C         2.371473        -1.177969         0.462818
 H        -0.546983        -0.735187         0.790274
 H        -0.781565         0.400476        -0.544642
 H        -0.198354        -1.132686        -0.939926
 H         4.091315        -0.375358        -1.120508
 H         4.292931         1.108879         1.166305
 H         3.375328         1.831872        -0.232735
 H         2.462829         2.089670         2.441727
 H         3.151738        -0.787294         2.640179
 H         1.437017        -0.968461         2.414290
 H         2.332185        -2.165076         0.023249
