19
Iteration:  4267
 C        -0.111810        -0.314435         0.025811
 C         1.376792        -0.157905         0.123822
 O         1.988747         0.089684        -1.234989
 C         3.235927        -0.228472        -0.518519
 C         3.421693         1.136161         0.277007
 C         2.220664         0.798547         1.221522
 O         1.486731         1.799440         1.900570
 C         2.544861        -0.507761         1.965594
 C         2.519259        -1.140361         0.555037
 H        -0.565641        -0.384330         0.957136
 H        -0.559436         0.380119        -0.660129
 H        -0.352210        -1.271548        -0.497559
 H         4.118022        -0.499295        -1.151493
 H         4.248841         1.301253         0.933209
 H         3.152604         1.885828        -0.528437
 H         1.368919         2.684162         1.439518
 H         3.479486        -0.481070         2.473885
 H         1.636323        -0.779142         2.480674
 H         2.382972        -2.315815         0.579281
