19
Iteration:  3814charge 0 multiplicity 1
 C        -0.071969        -0.439137        -0.103093
 C         1.365048        -0.200851         0.127863
 O         1.966916         0.119016        -1.218884
 C         3.180850        -0.174629        -0.481333
 C         3.309235         1.026437         0.367746
 C         2.138700         0.812663         1.223695
 O         1.694602         1.986244         1.790932
 C         2.560495        -0.483639         1.965347
 C         2.477158        -1.114301         0.560027
 H        -0.440571        -0.980390         0.810874
 H        -0.695764         0.445197        -0.448510
 H        -0.085235        -1.329018        -0.729642
 H         4.110572        -0.573803        -0.950065
 H         4.306417         1.099741         0.914466
 H         2.974972         1.947189        -0.196432
 H         1.074366         1.761761         2.508341
 H         3.519949        -0.478932         2.464993
 H         1.921774        -0.832891         2.753626
 H         2.223953        -2.072101         0.264199
