19
Iteration:  2806charge 0 multiplicity 1
 C        -0.078857        -0.472424        -0.073177
 C         1.361952        -0.113115         0.020753
 O         1.960911         0.082744        -1.201938
 C         3.249230        -0.212473        -0.421049
 C         3.300153         1.139960         0.354001
 C         2.141944         0.839364         1.225127
 O         1.797969         1.910964         2.015178
 C         2.426712        -0.523291         1.865526
 C         2.457271        -1.133708         0.499979
 H        -0.529409        -0.741143         0.895298
 H        -0.618267         0.413343        -0.463249
 H        -0.139023        -1.312577        -0.825744
 H         4.083563        -0.498658        -1.047649
 H         4.235963         1.281929         0.933091
 H         3.020185         1.751800        -0.520803
 H         1.661027         2.616838         1.405075
 H         3.154733        -0.674648         2.702071
 H         1.480451        -1.066707         2.288856
 H         2.220593        -2.177766         0.449626
