19
Iteration:  4058
 C        -0.063369        -0.318099         0.078248
 C         1.444775        -0.126375         0.129797
 O         2.027789         0.146645        -1.233278
 C         3.265653        -0.253143        -0.513864
 C         3.487313         1.069888         0.337231
 C         2.193355         0.796747         1.249374
 O         1.408014         1.861549         1.870430
 C         2.500269        -0.488457         1.933508
 C         2.468133        -1.181523         0.507738
 H        -0.474745        -0.367606         1.151562
 H        -0.476417         0.482486        -0.649228
 H        -0.409534        -1.234945        -0.375233
 H         4.096155        -0.689022        -1.151052
 H         4.521189         1.158829         0.790725
 H         3.279396         1.928808        -0.363836
 H         0.768263         2.073033         1.210194
 H         3.490009        -0.677351         2.339564
 H         1.548016        -0.738278         2.500721
 H         2.139867        -2.272290         0.168827
