19
Iteration:   688charge 0 multiplicity 1
 C        -0.131394        -0.027000        -0.101505
 C         1.392055        -0.107097         0.073127
 O         2.118806         0.115192        -1.269120
 C         3.299655        -0.144136        -0.518081
 C         3.431171         0.980831         0.556785
 C         2.087225         0.699671         1.256574
 O         1.573128         1.850448         1.828488
 C         2.358424        -0.638874         1.943127
 C         2.473000        -1.227680         0.428004
 H        -0.627556        -0.430353         0.813831
 H        -0.338427         1.083096        -0.150902
 H        -0.411909        -0.730764        -0.926048
 H         4.268818        -0.357009        -0.987018
 H         4.220395         0.805033         1.346128
 H         3.626212         1.924515         0.023467
 H         1.056685         1.610405         2.579481
 H         3.215803        -0.589815         2.650916
 H         1.452539        -1.130334         2.395702
 H         2.553489        -2.282683         0.112352
