19
Iteration:  2548
 C        -0.130249        -0.032337         0.047714
 C         1.353156        -0.186531         0.047093
 O         1.927214         0.034284        -1.279170
 C         3.289275        -0.192700        -0.428552
 C         3.440728         1.129315         0.408526
 C         2.150978         0.713213         1.163976
 O         1.481606         1.833093         1.794336
 C         2.593369        -0.650418         1.935536
 C         2.558623        -1.151534         0.484324
 H        -0.382282         0.124969         1.143431
 H        -0.456917         0.834855        -0.422232
 H        -0.668151        -0.852435        -0.366895
 H         4.174078        -0.469858        -1.029747
 H         4.214321         1.019212         1.188062
 H         3.479440         2.143047        -0.037252
 H         1.036042         1.382544         2.534380
 H         3.540762        -0.690511         2.516994
 H         1.805544        -0.975580         2.606603
 H         2.647272        -2.166068         0.180911
