19
Iteration:  1381
 C        -0.121412        -0.015727         0.108781
 C         1.436013        -0.100750         0.015605
 O         2.098745         0.154131        -1.204555
 C         3.359219        -0.163166        -0.436328
 C         3.485550         1.000588         0.468398
 C         2.163271         0.759653         1.184674
 O         1.339678         1.712697         1.735949
 C         2.416584        -0.657109         1.894290
 C         2.469407        -1.176016         0.382303
 H        -0.437570        -0.018900         1.150329
 H        -0.409969         1.000160        -0.111894
 H        -0.459011        -0.905626        -0.454652
 H         4.180166        -0.508966        -0.958158
 H         4.332732         0.817654         1.214228
 H         3.663856         1.940829        -0.064518
 H         1.155556         1.619032         2.714463
 H         3.376948        -0.795102         2.393960
 H         1.518266        -0.771582         2.496140
 H         2.562258        -2.238642         0.164044
