19
Iteration:  1217
 C        -0.063665        -0.015895         0.087829
 C         1.400939        -0.046845         0.030739
 O         2.169697         0.143806        -1.187897
 C         3.311759        -0.164463        -0.472244
 C         3.430826         1.059784         0.462511
 C         2.155271         0.689499         1.231989
 O         1.474955         1.767629         1.746488
 C         2.371234        -0.779245         1.942302
 C         2.475130        -1.148825         0.442628
 H        -0.518754        -0.048461         1.133889
 H        -0.479690         1.024358        -0.210892
 H        -0.610222        -0.831858        -0.529792
 H         3.994338        -0.697882        -1.046217
 H         4.280496         1.121625         1.214792
 H         3.359181         2.052099        -0.056028
 H         0.577723         1.782948         1.415758
 H         3.251738        -1.086132         2.615539
 H         1.387467        -1.126488         2.347048
 H         2.482379        -2.122363        -0.059168
