19
Iteration:  4478charge 0 multiplicity 1
 C        -0.106795        -0.398610         0.034527
 C         1.392439        -0.154272         0.143810
 O         1.967129         0.141473        -1.136757
 C         3.295345        -0.157814        -0.543699
 C         3.410500         1.092295         0.324922
 C         2.102646         0.802928         1.211937
 O         1.605053         1.855008         1.817055
 C         2.521679        -0.504579         1.874327
 C         2.488515        -1.154084         0.524076
 H        -0.331610        -0.406491         1.206029
 H        -0.700315         0.222178        -0.582315
 H        -0.372263        -1.418982        -0.173520
 H         4.080338        -0.462524        -1.161221
 H         4.350192         1.115150         1.045406
 H         3.216412         1.972089        -0.265158
 H         0.829975         2.197327         1.253801
 H         3.284485        -0.535486         2.656978
 H         1.623665        -0.880213         2.351089
 H         2.622042        -2.273128         0.419120
