19
Iteration:   230charge 0 multiplicity 1
 C        -0.122795        -0.050551        -0.165508
 C         1.383691        -0.119173         0.108170
 O         2.036979         0.190185        -1.191609
 C         3.279448        -0.241023        -0.532700
 C         3.536561         0.963230         0.498455
 C         2.142714         0.706376         1.270892
 O         1.502760         1.775900         1.851300
 C         2.491259        -0.609157         1.960573
 C         2.425558        -1.137005         0.483755
 H        -0.845301        -0.281989         0.618512
 H        -0.271421         0.928182        -0.560073
 H        -0.299136        -0.732387        -0.974619
 H         4.200780        -0.402856        -1.138761
 H         4.336546         0.927019         1.266062
 H         3.686539         1.958088         0.004599
 H         0.592395         1.482803         1.897283
 H         3.366935        -0.573091         2.648675
 H         1.642231        -0.929916         2.542971
 H         2.325727        -2.206552         0.132332
