19
Iteration:     4
 C        -0.067258        -0.090264        -0.098610
 C         1.423422        -0.056590        -0.004764
 O         2.119403         0.163364        -1.186708
 C         3.307122        -0.262367        -0.386237
 C         3.484822         0.973417         0.519045
 C         2.092921         0.737569         1.181432
 O         1.458335         1.793358         1.766214
 C         2.388873        -0.616687         1.926536
 C         2.401229        -1.158313         0.486135
 H        -0.547519        -0.358011         0.883806
 H        -0.499351         0.907135        -0.365622
 H        -0.421717        -0.875984        -0.818328
 H         4.156836        -0.527369        -1.037586
 H         4.200319         0.828791         1.329751
 H         3.520657         1.909691        -0.013976
 H         2.062546         2.198692         2.453437
 H         3.306907        -0.656949         2.540149
 H         1.427305        -1.007842         2.460262
 H         2.180948        -2.267846         0.279078
