19
Iteration:  3215charge 0 multiplicity 1
 C        -0.118263        -0.287478         0.190530
 C         1.373048        -0.147318        -0.025310
 O         2.065390         0.009512        -1.267034
 C         3.229391        -0.227328        -0.454731
 C         3.580843         1.113906         0.417837
 C         2.169236         0.890500         1.138236
 O         1.395732         1.793797         1.948033
 C         2.534303        -0.473721         1.812476
 C         2.462911        -1.185103         0.454851
 H        -0.593350        -0.254121         1.103035
 H        -0.604711         0.659252        -0.231641
 H        -0.726997        -1.054104        -0.371219
 H         4.069336        -0.553187        -1.018867
 H         4.413240         0.988466         1.146685
 H         3.726313         2.036046        -0.219724
 H         0.809576         2.450424         1.477308
 H         3.542965        -0.585507         2.406476
 H         1.831054        -0.680672         2.578447
 H         2.383365        -2.288274         0.297685
