19
Iteration:   841
 C        -0.120914        -0.216742        -0.068923
 C         1.406883        -0.097504         0.051276
 O         2.032538         0.175836        -1.260991
 C         3.299810        -0.200231        -0.462386
 C         3.555522         0.993785         0.436310
 C         2.135158         0.769338         1.202220
 O         1.588023         1.805066         1.981584
 C         2.324189        -0.541280         1.870287
 C         2.459067        -1.125690         0.449856
 H        -0.540915        -0.628986         0.867083
 H        -0.540530         0.807326        -0.286534
 H        -0.339454        -0.847582        -0.937247
 H         4.153944        -0.682750        -1.130619
 H         4.420549         0.797831         1.121459
 H         3.584317         1.988613        -0.029315
 H         0.707794         1.422633         2.204282
 H         3.095924        -0.638722         2.604469
 H         1.379505        -0.873218         2.377423
 H         2.445449        -2.232979         0.407074
