19
Iteration:  1473
 C        -0.133334        -0.365165        -0.133851
 C         1.408272        -0.005366         0.046184
 O         2.060932         0.224847        -1.267893
 C         3.283803        -0.214377        -0.574184
 C         3.466898         0.934250         0.574614
 C         2.073929         0.758679         1.290725
 O         1.531854         1.856556         1.993781
 C         2.374157        -0.565391         1.874648
 C         2.494033        -1.105482         0.438509
 H        -0.665027        -0.770079         0.732013
 H        -0.574510         0.602727        -0.306517
 H        -0.134107        -1.042397        -0.907211
 H         4.051634        -0.687234        -1.228447
 H         4.261762         0.550517         1.150125
 H         3.659871         1.912719         0.105156
 H         2.308627         2.397265         2.057464
 H         3.280201        -0.591956         2.493589
 H         1.577219        -1.056163         2.422978
 H         2.137589        -2.076332         0.142006
