19
Iteration:  3159
 C        -0.140382        -0.461378        -0.054213
 C         1.378847        -0.227050         0.019465
 O         1.949367         0.102861        -1.135997
 C         3.285942        -0.121832        -0.474309
 C         3.391134         1.070203         0.348031
 C         2.148784         0.829568         1.252186
 O         1.604529         1.979014         1.874148
 C         2.526825        -0.583164         1.919048
 C         2.405682        -1.157493         0.513004
 H        -0.519301        -0.397100         0.935415
 H        -0.614880         0.445039        -0.584745
 H        -0.419687        -1.412086        -0.625172
 H         4.093340        -0.349724        -1.191593
 H         4.380518         1.122853         0.905964
 H         3.339261         2.084951        -0.117647
 H         2.202121         2.674725         1.666501
 H         3.611220        -0.761213         2.348337
 H         1.682631        -0.846817         2.550854
 H         2.418866        -2.276924         0.500311
