19
Iteration:  3782charge 0 multiplicity 1
 C        -0.163419        -0.402094         0.151923
 C         1.395496        -0.165737         0.066861
 O         2.015840         0.058812        -1.224157
 C         3.301181        -0.218126        -0.499910
 C         3.519372         1.062086         0.381161
 C         2.167186         0.866323         1.120863
 O         1.527062         1.897548         1.819386
 C         2.450156        -0.447791         1.850032
 C         2.507849        -1.076478         0.490230
 H        -0.410810        -0.662815         1.242365
 H        -0.969754         0.395990         0.066826
 H        -0.505233        -1.207795        -0.493432
 H         4.204380        -0.607556        -0.998746
 H         4.378990         1.029790         1.141601
 H         3.466552         2.009573        -0.227516
 H         0.893227         1.487895         2.484621
 H         3.251785        -0.479621         2.555036
 H         1.493119        -0.820942         2.226572
 H         2.389682        -2.077808         0.207355
