19
Iteration:  2711charge 0 multiplicity 1
 C        -0.116432        -0.039420         0.158080
 C         1.370709        -0.204262         0.059744
 O         2.032310         0.023996        -1.254769
 C         3.318587        -0.154605        -0.467315
 C         3.389465         1.085787         0.375866
 C         2.082997         0.690899         1.147907
 O         1.488596         1.842924         1.749949
 C         2.530932        -0.597206         1.913434
 C         2.532943        -1.183450         0.510669
 H        -0.531894        -0.372979         1.181345
 H        -0.360069         0.978248         0.031021
 H        -0.458731        -0.594306        -0.697039
 H         4.074288        -0.386129        -1.207419
 H         4.184655         0.895870         1.136528
 H         3.358038         2.114813        -0.010216
 H         0.830541         1.746450         2.465708
 H         3.499444        -0.411040         2.325268
 H         1.951908        -1.074191         2.653629
 H         2.810603        -2.166745         0.278778
