19
Iteration:  3528charge 0 multiplicity 1
 C        -0.085114        -0.289086         0.104424
 C         1.399529        -0.075556         0.062078
 O         2.021703         0.087555        -1.241486
 C         3.273681        -0.233004        -0.400556
 C         3.394468         1.088979         0.352037
 C         2.129804         0.735483         1.135284
 O         1.475606         1.933836         1.819120
 C         2.579681        -0.564938         1.881026
 C         2.460444        -1.166931         0.489303
 H        -0.383910        -0.609076         1.031014
 H        -0.587179         0.625182        -0.136744
 H        -0.503031        -1.005599        -0.685156
 H         4.113183        -0.505927        -0.977748
 H         4.234339         1.203648         1.017450
 H         3.166817         1.783405        -0.425946
 H         1.733116         1.714160         2.727048
 H         3.373970        -0.509989         2.665839
 H         1.715019        -0.959315         2.306137
 H         2.355139        -2.233566         0.218091
