19
Iteration:  1374
 C        -0.094917        -0.064248         0.125663
 C         1.412909        -0.040043        -0.005214
 O         2.133996         0.245371        -1.197877
 C         3.337100        -0.232696        -0.421901
 C         3.479449         1.016715         0.426937
 C         2.153142         0.684371         1.159802
 O         1.354238         1.717275         1.727859
 C         2.425248        -0.682735         1.856770
 C         2.455914        -1.123896         0.502060
 H        -0.322905        -0.155686         1.214811
 H        -0.443736         0.897498        -0.423414
 H        -0.493252        -0.914278        -0.462954
 H         4.190370        -0.706791        -1.010444
 H         4.330739         0.940910         1.078294
 H         3.503766         1.961736        -0.103694
 H         1.192463         1.569180         2.697229
 H         3.328073        -0.739772         2.556243
 H         1.591824        -0.996009         2.505617
 H         2.289305        -2.166391         0.200186
