19
Iteration:  3541charge 0 multiplicity 1
 C        -0.090927        -0.214736         0.122121
 C         1.413730        -0.225551         0.067010
 O         2.098258         0.105236        -1.277571
 C         3.278260        -0.233675        -0.554666
 C         3.347867         1.086927         0.285543
 C         2.178333         0.812527         1.245216
 O         1.469054         1.868780         1.825163
 C         2.441270        -0.557398         1.964938
 C         2.507923        -1.163883         0.515293
 H        -0.379676        -0.442558         1.159090
 H        -0.452491         0.841735         0.026940
 H        -0.479279        -0.930573        -0.635470
 H         4.139890        -0.647140        -1.163474
 H         4.322283         1.429419         0.661697
 H         3.052959         1.981473        -0.333893
 H         1.285282         1.779724         2.785255
 H         3.428842        -0.720731         2.490513
 H         1.617975        -0.893621         2.589388
 H         2.476557        -2.253184         0.376336
