19
Iteration:  4766
 C        -0.142270        -0.290428         0.106282
 C         1.402191        -0.109564         0.068235
 O         2.004515         0.096256        -1.162302
 C         3.294788        -0.229471        -0.498297
 C         3.387214         1.111177         0.327944
 C         2.071845         0.742372         1.240121
 O         1.460586         1.849891         1.793704
 C         2.555956        -0.567959         1.921375
 C         2.586333        -1.155167         0.528619
 H        -0.717294        -0.732274         0.887530
 H        -0.587277         0.752338        -0.013576
 H        -0.346865        -0.962707        -0.787278
 H         4.094226        -0.529672        -1.203541
 H         4.343636         1.254966         0.897474
 H         3.144105         1.984311        -0.429439
 H         1.900366         2.634861         1.482371
 H         3.472094        -0.547878         2.478862
 H         1.767312        -1.035770         2.439951
 H         2.615943        -2.192519         0.291873
