19
Iteration:  3137charge 0 multiplicity 1
 C        -0.170073        -0.419148        -0.034445
 C         1.362149        -0.124292         0.062172
 O         2.004369         0.037426        -1.346066
 C         3.192887        -0.266439        -0.525658
 C         3.449196         1.060686         0.372093
 C         2.179493         0.842788         1.212665
 O         1.538880         1.869653         1.992573
 C         2.549868        -0.386091         1.944345
 C         2.437697        -1.089584         0.488459
 H        -0.492470        -0.647383         0.965448
 H        -0.998399         0.305676        -0.310729
 H        -0.285171        -1.371468        -0.644456
 H         4.123396        -0.776367        -0.820679
 H         4.268395         0.997706         1.155891
 H         3.632605         2.073676        -0.073413
 H         2.205420         2.605364         2.185897
 H         3.599119        -0.358129         2.463361
 H         1.738725        -0.772042         2.588912
 H         2.499245        -2.204949         0.375356
