19
Iteration:  4761charge 0 multiplicity 1
 C        -0.134933        -0.286263         0.076841
 C         1.400330        -0.148760         0.106777
 O         2.025374         0.103716        -1.167552
 C         3.301125        -0.246301        -0.517796
 C         3.341610         1.108407         0.355691
 C         2.075791         0.764005         1.248186
 O         1.453639         1.887314         1.824058
 C         2.577303        -0.553029         1.883076
 C         2.581517        -1.187287         0.502413
 H        -0.625544        -0.726020         1.045940
 H        -0.498543         0.711858        -0.122753
 H        -0.428506        -0.865157        -0.785126
 H         4.139687        -0.485988        -1.242570
 H         4.297955         1.197159         0.913597
 H         3.125095         1.757018        -0.427520
 H         1.745578         2.757763         1.401153
 H         3.560205        -0.632912         2.477884
 H         1.731310        -0.918097         2.608071
 H         2.576827        -2.284366         0.242880
