19
Iteration:    39
 C        -0.137864        -0.070933        -0.036008
 C         1.384101        -0.167081         0.007352
 O         2.195573         0.172002        -1.181006
 C         3.286244        -0.217268        -0.427092
 C         3.491961         0.974767         0.501349
 C         2.178473         0.712758         1.273428
 O         1.444474         1.917735         1.700475
 C         2.357572        -0.689307         1.919052
 C         2.443266        -1.184591         0.451877
 H        -0.478623        -0.117576         1.028294
 H        -0.416418         0.934166        -0.441070
 H        -0.680028        -0.801335        -0.682295
 H         4.123567        -0.496563        -1.096720
 H         4.422668         0.940490         1.149480
 H         3.650134         1.952229         0.006649
 H         1.154363         1.938339         2.660572
 H         3.184797        -0.894825         2.668484
 H         1.375026        -1.129034         2.383165
 H         2.388642        -2.280083         0.195938
