19
Iteration:  1246
 C        -0.025978        -0.048007         0.028489
 C         1.418544        -0.167324        -0.059703
 O         2.045723         0.204145        -1.240187
 C         3.310250        -0.184631        -0.482304
 C         3.537036         1.022602         0.496853
 C         2.103831         0.742984         1.154647
 O         1.393676         1.732050         1.922921
 C         2.398358        -0.587629         1.933801
 C         2.507356        -1.260864         0.488794
 H        -0.431380        -0.292185         0.992656
 H        -0.215716         0.969631        -0.144813
 H        -0.600558        -0.553591        -0.670216
 H         4.006858        -0.848255        -1.103457
 H         4.278340         0.704772         1.229272
 H         3.562942         2.007364         0.007267
 H         1.040524         2.391418         1.326789
 H         3.230671        -0.573532         2.552456
 H         1.527868        -0.909368         2.508981
 H         2.582415        -2.305321         0.123704
