19
Iteration:  3939charge 0 multiplicity 1
 C        -0.152691        -0.281873         0.122074
 C         1.409006        -0.181400         0.117188
 O         1.977619         0.031825        -1.196603
 C         3.229037        -0.180146        -0.524926
 C         3.490286         1.027769         0.481922
 C         2.127810         0.770156         1.203259
 O         1.391023         1.931580         1.669189
 C         2.583187        -0.498132         1.908716
 C         2.566420        -1.100463         0.472741
 H        -0.555708        -0.782262         1.000841
 H        -0.511520         0.649274        -0.252206
 H        -0.411896        -0.949264        -0.764115
 H         4.056595        -0.454926        -1.204733
 H         4.482105         0.937638         0.965735
 H         3.480959         2.013391        -0.007314
 H         1.678598         2.070428         2.630226
 H         3.596167        -0.577014         2.246254
 H         1.829140        -0.946847         2.559662
 H         2.417112        -2.263499         0.357805
