19
Iteration:   646charge 0 multiplicity 1
 C        -0.110020        -0.383087        -0.250238
 C         1.339437         0.039518         0.074193
 O         2.153283         0.314593        -1.205798
 C         3.229454        -0.244249        -0.435598
 C         3.451941         0.933250         0.479193
 C         2.160595         0.732379         1.254848
 O         1.717485         1.940514         1.912164
 C         2.381559        -0.634427         1.964699
 C         2.280447        -1.171783         0.442870
 H        -0.500611        -1.097704         0.513061
 H        -0.879184         0.446729        -0.402163
 H         0.262172        -0.961192        -1.138359
 H         3.979439        -0.620864        -1.054833
 H         4.373125         0.728636         1.045433
 H         3.371679         1.943056         0.095402
 H         1.079842         1.657155         2.586603
 H         3.299881        -0.763088         2.571916
 H         1.424612        -0.750633         2.581111
 H         1.872251        -2.127622         0.014087
