19
Iteration:  3935
 C        -0.118438        -0.280792         0.094988
 C         1.416377        -0.175789         0.178720
 O         1.984410         0.039331        -1.183673
 C         3.237291        -0.152679        -0.551197
 C         3.438268         1.001379         0.476625
 C         2.151900         0.753068         1.170434
 O         1.392450         1.917390         1.647912
 C         2.579299        -0.494228         1.912891
 C         2.557665        -1.090189         0.465898
 H        -0.497888        -0.756404         1.031159
 H        -0.492899         0.761727        -0.207229
 H        -0.591126        -0.958306        -0.560403
 H         4.059756        -0.459336        -1.164611
 H         4.449019         0.845987         0.967274
 H         3.464739         1.993414         0.048546
 H         1.624922         1.976618         2.556654
 H         3.538591        -0.574170         2.450293
 H         1.842910        -0.982657         2.588156
 H         2.422162        -2.101746         0.343420
