19
Iteration:  2609charge 0 multiplicity 1
 C        -0.114895        -0.379085         0.011788
 C         1.343381        -0.117444         0.103754
 O         1.967774         0.125256        -1.180015
 C         3.248058        -0.125530        -0.552571
 C         3.424043         1.036765         0.437754
 C         2.226294         0.780107         1.242080
 O         1.699073         1.912734         1.820365
 C         2.410737        -0.557256         1.908081
 C         2.464606        -1.158570         0.434425
 H        -0.442580        -0.512714         1.064156
 H        -0.613260         0.561148        -0.427011
 H        -0.364848        -1.332266        -0.589740
 H         4.094078        -0.545446        -1.128610
 H         4.362502         1.025730         1.026316
 H         3.419077         2.118963         0.171437
 H         0.714698         1.998202         1.804516
 H         3.305038        -0.695342         2.539502
 H         1.471136        -0.913601         2.409338
 H         2.371108        -2.275030         0.330762
