19
Iteration:  3905
 C        -0.064219        -0.263202         0.200351
 C         1.419271        -0.210029         0.106338
 O         2.006077         0.175730        -1.218840
 C         3.308596        -0.215287        -0.468831
 C         3.459802         1.104593         0.354828
 C         2.204099         0.764184         1.132342
 O         1.394598         1.868906         1.661263
 C         2.431544        -0.534594         1.898340
 C         2.558408        -1.170637         0.519392
 H        -0.443976        -0.245441         1.291785
 H        -0.595657         0.693602        -0.021987
 H        -0.519728        -1.134455        -0.210011
 H         4.027409        -0.703779        -1.108748
 H         4.491070         1.330580         0.787991
 H         3.022201         1.793600        -0.347863
 H         1.270478         1.559076         2.616167
 H         3.326858        -0.669168         2.433099
 H         1.630840        -0.926562         2.557415
 H         2.575630        -2.326140         0.468430
