19
Iteration:  3672
 C        -0.181399        -0.436150         0.075822
 C         1.361216        -0.097539        -0.025124
 O         2.066224         0.017742        -1.223115
 C         3.274880        -0.202546        -0.438791
 C         3.374819         1.153216         0.350787
 C         2.150701         0.814290         1.155515
 O         1.694426         1.939895         1.900616
 C         2.430365        -0.554408         1.895652
 C         2.445377        -1.086102         0.486278
 H        -0.449375        -0.806190         1.085405
 H        -0.723379         0.489642        -0.253288
 H        -0.384660        -1.381791        -0.513402
 H         4.145568        -0.341912        -1.179330
 H         4.180278         1.378294         1.094822
 H         3.147130         1.964197        -0.470048
 H         1.329845         1.657040         2.733950
 H         3.421239        -0.622269         2.386743
 H         1.654314        -0.849716         2.586483
 H         2.249923        -2.114117         0.154556
