19
Iteration:  4185charge 0 multiplicity 1
 C        -0.117167        -0.331894         0.150487
 C         1.443535        -0.138479         0.064736
 O         2.023372         0.080034        -1.220761
 C         3.290416        -0.177610        -0.538257
 C         3.400624         1.108994         0.388958
 C         2.169738         0.749068         1.147014
 O         1.483339         1.927847         1.711524
 C         2.491993        -0.569321         1.905892
 C         2.497500        -1.161209         0.545850
 H        -0.589918        -0.804826         1.085703
 H        -0.655182         0.663003         0.106089
 H        -0.175625        -1.003248        -0.690273
 H         4.106865        -0.508894        -1.149573
 H         4.294734         1.199403         1.043855
 H         3.317300         2.071640        -0.023307
 H         1.266403         1.772602         2.670497
 H         3.379275        -0.668262         2.632432
 H         1.599933        -0.686928         2.566258
 H         2.236730        -2.133653         0.387660
