19
Iteration:  1388
 C        -0.079931         0.012143         0.091622
 C         1.419883        -0.160042         0.058668
 O         2.082927         0.086842        -1.254183
 C         3.326411        -0.132297        -0.466349
 C         3.528242         1.016735         0.557265
 C         2.157898         0.766108         1.208662
 O         1.326228         1.748769         1.755322
 C         2.437273        -0.586560         1.892939
 C         2.463883        -1.234841         0.353930
 H        -0.481311        -0.152213         1.107160
 H        -0.438810         1.001982        -0.198248
 H        -0.742413        -0.643705        -0.502358
 H         4.246595        -0.319601        -1.173600
 H         4.338781         0.853375         1.247437
 H         3.700690         1.956675        -0.013002
 H         1.307778         1.561964         2.716897
 H         3.329608        -0.758814         2.483750
 H         1.497837        -0.989687         2.408873
 H         2.652498        -2.278041         0.005737
