19
Iteration:  3407charge 0 multiplicity 1
 C         0.031103        -0.157819         0.036267
 C         1.426288        -0.116549         0.076516
 O         1.940429         0.087005        -1.205701
 C         3.292475        -0.204071        -0.514956
 C         3.431895         1.092725         0.261994
 C         2.222768         0.778306         1.168676
 O         1.428083         1.697658         1.917344
 C         2.512390        -0.497635         1.939609
 C         2.427806        -1.189194         0.610187
 H        -0.419933        -0.234707         1.014853
 H        -0.386912         0.729334        -0.430087
 H        -0.278707        -0.937407        -0.755485
 H         3.977198        -0.793860        -1.114946
 H         4.325917         1.141501         0.917540
 H         3.160362         1.970306        -0.302840
 H         0.880313         2.168782         1.301140
 H         3.465285        -0.613754         2.502205
 H         1.689151        -0.399985         2.647438
 H         2.558571        -2.281710         0.372811
