19
Iteration:  2853
 C        -0.146519        -0.251835         0.033273
 C         1.319906        -0.147283         0.134681
 O         1.960658         0.050202        -1.210390
 C         3.255381        -0.269519        -0.465510
 C         3.509032         1.038609         0.411754
 C         2.175107         0.851081         1.157078
 O         1.402595         1.839790         1.816973
 C         2.623384        -0.472807         1.848056
 C         2.499335        -1.148147         0.462188
 H        -0.599883        -0.807929         0.938082
 H        -0.631563         0.716783        -0.034988
 H        -0.302246        -0.817454        -0.868618
 H         4.141761        -0.653957        -0.994341
 H         4.252314         0.941841         1.193970
 H         3.367371         1.971091        -0.118255
 H         1.932412         2.398339         2.449168
 H         3.637972        -0.499022         2.322634
 H         1.935568        -0.745567         2.670795
 H         2.621056        -2.168452         0.223405
