19
Iteration:  4461charge 0 multiplicity 1
 C        -0.134861        -0.416049         0.123479
 C         1.379410        -0.178352         0.068127
 O         1.976423         0.154506        -1.270522
 C         3.202259        -0.173482        -0.483942
 C         3.442682         1.042683         0.332414
 C         2.123865         0.776234         1.172856
 O         1.533059         1.863658         1.881189
 C         2.537625        -0.475056         2.046488
 C         2.602029        -1.138131         0.510620
 H        -0.677092        -0.226420         0.998293
 H        -0.487777         0.366975        -0.652516
 H        -0.274000        -1.337264        -0.488695
 H         3.982325        -0.571704        -1.268083
 H         4.251686         1.112334         1.027596
 H         3.368981         2.013652        -0.203966
 H         1.149093         2.446660         1.126238
 H         3.643283        -0.426819         2.255520
 H         1.631273        -1.004786         2.468941
 H         2.430297        -2.138039         0.207257
