19
Iteration:  3740
 C        -0.115426        -0.185230         0.157576
 C         1.363372        -0.161868         0.089768
 O         2.036076         0.060799        -1.184970
 C         3.304896        -0.205148        -0.430508
 C         3.344587         1.080255         0.384721
 C         2.115431         0.773647         1.198392
 O         1.462885         1.930307         1.697618
 C         2.605056        -0.599942         1.887006
 C         2.562850        -1.215789         0.447675
 H        -0.507066        -0.316652         1.217840
 H        -0.301522         0.908151        -0.132281
 H        -0.591125        -0.840615        -0.504582
 H         4.110013        -0.440736        -1.105249
 H         4.278639         1.245665         0.988358
 H         3.056570         1.822902        -0.340238
 H         0.661585         1.523978         2.039083
 H         3.532735        -0.475208         2.414476
 H         1.902736        -1.093528         2.629325
 H         2.711750        -2.242777         0.241682
