19
Iteration:  3073charge 0 multiplicity 1
 C        -0.132077        -0.113759         0.159991
 C         1.328654        -0.210056         0.206381
 O         2.040341         0.038818        -1.163415
 C         3.276577        -0.133030        -0.464133
 C         3.450342         1.036251         0.418565
 C         2.054764         0.736192         1.148523
 O         1.381214         1.818720         1.657440
 C         2.566172        -0.584573         1.905164
 C         2.592582        -1.135898         0.420713
 H        -0.361206        -0.423999         1.132893
 H        -0.405318         0.984930         0.148393
 H        -0.652112        -0.779820        -0.581012
 H         4.058761        -0.552488        -1.122049
 H         4.372441         0.819216         1.012259
 H         3.465866         2.022213        -0.100000
 H         1.863916         2.599521         1.348999
 H         3.541938        -0.378419         2.477714
 H         2.118520        -1.157701         2.659214
 H         2.601576        -2.223356         0.045815
