19
Iteration:  4438
 C        -0.100599        -0.358008         0.088755
 C         1.362193        -0.108269         0.031418
 O         1.999294         0.018393        -1.170920
 C         3.263449        -0.177065        -0.521004
 C         3.375120         1.073694         0.364121
 C         2.197276         0.811975         1.156243
 O         1.413455         1.821484         1.903997
 C         2.625689        -0.509173         1.865715
 C         2.475823        -1.121868         0.533392
 H        -0.463537        -0.303449         1.099708
 H        -0.618805         0.494784        -0.408338
 H        -0.318374        -1.251252        -0.470425
 H         4.136809        -0.384758        -1.235745
 H         4.338357         0.978150         0.898531
 H         3.455197         1.972992        -0.225702
 H         1.725064         2.661368         1.605038
 H         3.612069        -0.287954         2.357555
 H         1.682239        -0.745114         2.391878
 H         2.457104        -2.136886         0.510754
