19
Iteration:  1384charge 0 multiplicity 1
 C        -0.105535        -0.004968         0.099858
 C         1.435172        -0.127056         0.035863
 O         2.090314         0.122990        -1.221890
 C         3.349100        -0.144575        -0.444786
 C         3.503089         1.004556         0.502502
 C         2.161507         0.773972         1.196720
 O         1.334091         1.722433         1.743239
 C         2.418126        -0.629537         1.899633
 C         2.465088        -1.204420         0.355473
 H        -0.484292        -0.044392         1.159441
 H        -0.453562         1.069688        -0.113910
 H        -0.566435        -0.843286        -0.472447
 H         4.236305        -0.429754        -1.046329
 H         4.309023         0.825322         1.220926
 H         3.692099         1.919013        -0.042536
 H         1.203787         1.604327         2.691343
 H         3.417727        -0.801662         2.416990
 H         1.499844        -0.811646         2.453779
 H         2.637770        -2.253237         0.107988
