19
Iteration:  3157
 C        -0.141144        -0.471102        -0.053465
 C         1.371595        -0.223308        -0.012691
 O         1.952951         0.093974        -1.154269
 C         3.271210        -0.117168        -0.460098
 C         3.402882         1.053305         0.358257
 C         2.145350         0.854407         1.255561
 O         1.598006         1.966189         1.883802
 C         2.540562        -0.575161         1.924469
 C         2.402496        -1.146186         0.522312
 H        -0.507675        -0.419045         1.017286
 H        -0.535690         0.452946        -0.588349
 H        -0.414324        -1.390682        -0.632449
 H         4.049126        -0.343038        -1.250107
 H         4.418564         1.067642         0.878050
 H         3.354546         2.053195        -0.138652
 H         2.233423         2.684140         1.718249
 H         3.600646        -0.702547         2.296074
 H         1.676843        -0.844012         2.592213
 H         2.391525        -2.239254         0.500050
