19
Iteration:  2721
 C        -0.105404        -0.029363         0.129440
 C         1.369244        -0.125234        -0.008030
 O         2.008614         0.069892        -1.171147
 C         3.253794        -0.154379        -0.474627
 C         3.376806         1.080150         0.414772
 C         2.108774         0.671207         1.205948
 O         1.506433         1.814052         1.651816
 C         2.598437        -0.639989         1.947395
 C         2.580719        -1.171820         0.500220
 H        -0.352478        -0.363331         1.240134
 H        -0.455882         0.954579        -0.100149
 H        -0.712205        -0.785892        -0.411198
 H         4.066170        -0.580191        -1.038199
 H         4.248748         1.223033         1.140987
 H         3.158928         1.971680        -0.192636
 H         0.709741         1.520481         2.198005
 H         3.510859        -0.659518         2.525838
 H         1.761048        -1.024784         2.536437
 H         2.644952        -2.187505         0.289345
