19
Iteration:   780
 C        -0.103082        -0.277705        -0.212267
 C         1.333214        -0.104839         0.081296
 O         2.036044         0.246647        -1.088062
 C         3.315368        -0.184282        -0.522891
 C         3.455544         1.022594         0.474540
 C         2.139828         0.716091         1.227493
 O         1.619209         1.878263         1.901167
 C         2.326719        -0.658377         1.904081
 C         2.459588        -1.166660         0.433573
 H        -0.642538        -0.576560         0.722591
 H        -0.544345         0.671057        -0.491845
 H        -0.324544        -1.115256        -0.845850
 H         4.013208        -0.651968        -1.121672
 H         4.218581         0.828800         1.203024
 H         3.594455         2.023429         0.075638
 H         2.367472         2.533064         2.025646
 H         3.071170        -0.907152         2.701551
 H         1.297160        -0.930488         2.198980
 H         2.344582        -2.250106         0.367508
