19
Iteration:   914
 C        -0.104225        -0.030629         0.030588
 C         1.428882        -0.088097        -0.046139
 O         2.105946         0.216850        -1.205255
 C         3.330354        -0.196161        -0.471662
 C         3.505602         0.970496         0.417525
 C         2.168918         0.707319         1.208943
 O         1.452534         1.701611         1.886044
 C         2.384469        -0.524190         1.912947
 C         2.392827        -1.202768         0.512343
 H        -0.567102        -0.219427         0.995117
 H        -0.486900         0.873177        -0.458850
 H        -0.342978        -0.942869        -0.601069
 H         4.178982        -0.675715        -1.100988
 H         4.409399         0.907888         1.092181
 H         3.658539         1.857300        -0.224576
 H         0.507818         1.420920         1.661066
 H         3.323058        -0.634561         2.528524
 H         1.561351        -0.859746         2.524296
 H         2.548474        -2.270609         0.390535
