19
Iteration:  4995charge 0 multiplicity 1
 C        -0.011269        -0.334657         0.160007
 C         1.454377        -0.171767         0.144131
 O         1.945089         0.099512        -1.235429
 C         3.222285        -0.176607        -0.505493
 C         3.434850         1.069443         0.295195
 C         2.130120         0.785655         1.144459
 O         1.451080         1.921111         1.773361
 C         2.586390        -0.483048         1.949887
 C         2.488077        -1.134770         0.516836
 H        -0.158324        -1.004562         0.938568
 H        -0.697573         0.506857         0.056417
 H        -0.383077        -0.921952        -0.713578
 H         3.869932        -0.701939        -1.154564
 H         4.379180         0.974379         0.898112
 H         3.365541         1.965474        -0.376104
 H         0.869385         1.491138         2.359937
 H         3.632898        -0.402666         2.423307
 H         1.850018        -0.934735         2.684441
 H         2.279653        -2.163521         0.283362
