19
Iteration:  4386
 C        -0.103265        -0.238943         0.160374
 C         1.384548        -0.186350         0.182074
 O         2.019118        -0.019246        -1.270312
 C         3.240558        -0.197615        -0.526277
 C         3.352285         1.165523         0.413325
 C         2.144893         0.798377         1.187791
 O         1.415995         1.856396         1.742676
 C         2.581101        -0.536275         1.886167
 C         2.570680        -1.151678         0.464455
 H        -0.383902        -0.779928         1.046890
 H        -0.606631         0.832885         0.063550
 H        -0.433262        -0.891810        -0.729403
 H         4.178419        -0.554556        -1.080950
 H         4.213554         1.228312         1.054933
 H         3.291625         1.951534        -0.426366
 H         1.890721         2.205861         2.481602
 H         3.473280        -0.256179         2.499530
 H         1.693704        -0.873235         2.473272
 H         2.669053        -2.319251         0.308261
