19
Iteration:   771charge 0 multiplicity 1
 C        -0.079551        -0.213699        -0.163721
 C         1.390037        -0.148735         0.106022
 O         1.999645         0.207646        -1.172736
 C         3.262167        -0.128955        -0.539793
 C         3.524919         0.940120         0.513517
 C         2.153151         0.742535         1.254339
 O         1.542769         1.866150         1.922564
 C         2.334791        -0.655406         1.877888
 C         2.451140        -1.175322         0.507944
 H        -0.728221        -0.376058         0.677108
 H        -0.292863         0.732759        -0.613728
 H        -0.284965        -0.901587        -0.992938
 H         4.108066        -0.570638        -1.199531
 H         4.433987         0.782156         1.105048
 H         3.526951         1.975003         0.104236
 H         2.071341         2.676833         1.669578
 H         3.129831        -0.733630         2.639553
 H         1.475676        -1.127140         2.281653
 H         2.442053        -2.184983         0.138854
