19
Iteration:    73charge 0 multiplicity 1
 C        -0.008684        -0.169886        -0.085170
 C         1.423072        -0.035208        -0.054656
 O         2.139364         0.153934        -1.320697
 C         3.274924        -0.282036        -0.358982
 C         3.460594         1.012719         0.450573
 C         2.143485         0.754910         1.206822
 O         1.608875         1.765658         1.945502
 C         2.260984        -0.509569         1.945536
 C         2.352675        -1.130843         0.517080
 H        -0.413922        -0.453054         0.894380
 H        -0.448511         0.782891        -0.461372
 H        -0.210130        -1.030744        -0.759066
 H         4.099546        -0.724705        -0.918464
 H         4.364696         0.996296         1.152911
 H         3.388055         1.803947        -0.321477
 H         0.683146         1.490301         2.125591
 H         3.159557        -0.485488         2.629191
 H         1.317094        -0.860498         2.468464
 H         2.219563        -2.129624         0.209598
