19
Iteration:  4436
 C        -0.117454        -0.345711         0.094140
 C         1.369533        -0.096369         0.036345
 O         2.012941         0.016060        -1.170658
 C         3.258731        -0.182333        -0.508858
 C         3.361977         1.071987         0.350816
 C         2.202802         0.825347         1.142915
 O         1.413332         1.804334         1.900154
 C         2.618392        -0.492625         1.863360
 C         2.498440        -1.130180         0.538627
 H        -0.501584        -0.365731         1.164669
 H        -0.601405         0.441222        -0.419314
 H        -0.311479        -1.199218        -0.482654
 H         4.075068        -0.360526        -1.205393
 H         4.358110         0.981046         0.965970
 H         3.360324         1.970563        -0.227124
 H         1.782451         2.681799         1.640870
 H         3.617145        -0.379654         2.350084
 H         1.683465        -0.753921         2.340216
 H         2.407153        -2.171164         0.468182
