19
Iteration:  1325charge 0 multiplicity 1
 C        -0.186794        -0.338802        -0.192253
 C         1.296527        -0.082290         0.056812
 O         2.019590         0.123388        -1.252580
 C         3.233351        -0.128410        -0.492403
 C         3.536312         1.027596         0.595466
 C         2.097410         0.820990         1.195492
 O         1.653887         1.879858         1.920171
 C         2.359315        -0.622956         1.943005
 C         2.495875        -1.085211         0.405897
 H        -0.482161        -0.597102         0.814435
 H        -0.505091         0.452727        -0.793436
 H        -0.267789        -1.218592        -0.868560
 H         4.032027        -0.526355        -1.070654
 H         4.342328         0.897364         1.388868
 H         3.812402         1.932548        -0.021613
 H         2.095505         1.909137         2.739717
 H         3.072927        -0.783083         2.701086
 H         1.544030        -1.248438         2.314659
 H         2.595972        -2.170815         0.437160
