19
Iteration:    37
 C        -0.147224        -0.064450        -0.030416
 C         1.392355        -0.172474        -0.006953
 O         2.181748         0.178720        -1.202470
 C         3.289446        -0.215662        -0.409696
 C         3.497357         0.961124         0.528141
 C         2.155232         0.705059         1.263609
 O         1.452456         1.914567         1.695628
 C         2.371327        -0.678705         1.924409
 C         2.447834        -1.182577         0.445921
 H        -0.531804        -0.110423         1.039475
 H        -0.426082         0.943266        -0.443060
 H        -0.704786        -0.797842        -0.682016
 H         4.142560        -0.493698        -1.060877
 H         4.376269         0.904775         1.171659
 H         3.616152         1.945621         0.057114
 H         1.209754         1.972880         2.628698
 H         3.246645        -0.831788         2.610383
 H         1.394983        -1.137631         2.467678
 H         2.462510        -2.333841         0.202484
