19
Iteration:  2610charge 0 multiplicity 1
 C        -0.124645        -0.386393         0.004308
 C         1.345750        -0.121381         0.105106
 O         1.968078         0.120296        -1.178811
 C         3.251249        -0.122344        -0.564803
 C         3.415303         1.039917         0.444943
 C         2.223057         0.786002         1.243098
 O         1.706296         1.915494         1.819816
 C         2.415763        -0.554231         1.917115
 C         2.460011        -1.158594         0.428465
 H        -0.449705        -0.511174         1.069963
 H        -0.596773         0.533456        -0.400967
 H        -0.367347        -1.310194        -0.615295
 H         4.094381        -0.561220        -1.127499
 H         4.352170         0.998277         1.053434
 H         3.444234         2.124530         0.199790
 H         0.747487         2.011730         1.812313
 H         3.278649        -0.704651         2.556260
 H         1.500136        -0.911250         2.408597
 H         2.381749        -2.252487         0.318031
