19
Iteration:   203charge 0 multiplicity 1
 C        -0.047799        -0.005896        -0.001218
 C         1.408845        -0.159470        -0.017642
 O         2.143708         0.221096        -1.183560
 C         3.305978        -0.238250        -0.399882
 C         3.383657         1.035130         0.437225
 C         2.123679         0.692567         1.231402
 O         1.522229         1.821688         1.776458
 C         2.347913        -0.718253         1.852427
 C         2.462366        -1.195866         0.497609
 H        -0.337159        -0.091278         1.076916
 H        -0.359036         1.031947        -0.361555
 H        -0.559881        -0.749119        -0.699463
 H         4.249484        -0.412062        -0.894541
 H         4.285242         1.218167         1.056875
 H         3.286314         1.917402        -0.192405
 H         1.013664         1.477270         2.500139
 H         3.048844        -0.890809         2.706527
 H         1.357713        -1.079607         2.324831
 H         2.555744        -2.245855         0.262486
