19
Iteration:   833charge 0 multiplicity 1
 C        -0.103364        -0.274083        -0.081412
 C         1.377112         0.012447         0.001813
 O         2.056250         0.128545        -1.262430
 C         3.269817        -0.183464        -0.463672
 C         3.548106         0.935006         0.488633
 C         2.158728         0.837729         1.156091
 O         1.579415         1.871560         2.032354
 C         2.343163        -0.585618         1.849462
 C         2.447274        -1.146067         0.448397
 H        -0.455772        -0.733606         0.920640
 H        -0.752687         0.631702        -0.251489
 H        -0.258102        -0.976458        -0.916477
 H         4.106444        -0.536888        -0.963017
 H         4.444203         0.758775         1.069255
 H         3.612402         1.845898        -0.116874
 H         0.874813         1.337132         2.499934
 H         3.147400        -0.546308         2.625026
 H         1.361839        -0.927733         2.328949
 H         2.271271        -2.215263         0.164343
