19
Iteration:  1269charge 0 multiplicity 1
 C        -0.170619        -0.176821        -0.078098
 C         1.339192         0.018473         0.033131
 O         2.153718         0.125489        -1.243446
 C         3.339614        -0.204012        -0.427736
 C         3.450835         0.994008         0.488952
 C         2.165874         0.769732         1.234118
 O         1.457748         1.713151         1.938644
 C         2.509068        -0.579222         1.873590
 C         2.373748        -1.143457         0.458342
 H        -0.654768        -0.615122         0.785558
 H        -0.705101         0.704387        -0.310398
 H        -0.374049        -0.837007        -0.905025
 H         4.286641        -0.579335        -0.873814
 H         4.402183         0.840907         1.024814
 H         3.267808         1.866905        -0.184693
 H         1.768350         2.625060         1.736979
 H         3.409999        -0.595482         2.401388
 H         1.706293        -1.031883         2.453823
 H         2.023280        -2.164266         0.237331
