19
Iteration:  3925charge 0 multiplicity 1
 C        -0.049833        -0.277052         0.113450
 C         1.383624        -0.155427         0.145869
 O         1.977817         0.101259        -1.183194
 C         3.274106        -0.125202        -0.555950
 C         3.401171         1.017461         0.357727
 C         2.126867         0.768983         1.183957
 O         1.427075         1.844155         1.601798
 C         2.581326        -0.545028         1.992805
 C         2.539174        -1.151156         0.529392
 H        -0.373643        -0.281558         1.187169
 H        -0.488887         0.768239         0.077081
 H        -0.428838        -0.982160        -0.526186
 H         4.064562        -0.421405        -1.211880
 H         4.164816         0.774609         1.178869
 H         3.473695         2.007161        -0.055807
 H         1.453022         1.927064         2.546922
 H         3.346060        -0.335590         2.695625
 H         1.680807        -1.027560         2.452094
 H         2.554243        -2.168281         0.208650
