19
Iteration:  4201charge 0 multiplicity 1
 C        -0.017006        -0.293797         0.125574
 C         1.390010        -0.155898         0.086427
 O         2.008705         0.054889        -1.199406
 C         3.254792        -0.144083        -0.443114
 C         3.420796         1.130517         0.359619
 C         2.116628         0.819250         1.176303
 O         1.550720         1.875847         1.703488
 C         2.469357        -0.545979         1.961952
 C         2.442852        -1.181638         0.488942
 H        -0.183186        -0.608602         1.133654
 H        -0.531122         0.677603         0.036578
 H        -0.459835        -1.007383        -0.585651
 H         4.067950        -0.446043        -1.154922
 H         4.297989         1.218436         0.995007
 H         3.337674         1.996505        -0.390161
 H         0.855437         1.488380         2.250830
 H         3.393764        -0.579757         2.436995
 H         1.651606        -1.084694         2.370171
 H         2.695669        -2.302416         0.240811
