19
Iteration:  4522
 C        -0.124776        -0.305023         0.118373
 C         1.335831        -0.083351         0.041353
 O         2.083814         0.048245        -1.250292
 C         3.255469        -0.219152        -0.537075
 C         3.403550         1.072001         0.347658
 C         2.087462         0.715273         1.149125
 O         1.530145         1.892486         1.871988
 C         2.564079        -0.464963         1.934462
 C         2.534028        -1.092909         0.522800
 H        -0.284858        -0.739529         1.209104
 H        -0.802833         0.465565        -0.149171
 H        -0.400716        -1.178850        -0.449893
 H         3.998015        -0.539136        -1.221700
 H         4.299241         1.011138         1.095012
 H         3.286301         1.949604        -0.248796
 H         0.515197         1.824224         1.859670
 H         3.522755        -0.346176         2.408444
 H         2.030094        -0.994560         2.637145
 H         2.356699        -2.181499         0.459638
