19
Iteration:  3498
 C        -0.166244        -0.476992         0.012578
 C         1.373982        -0.148206         0.050516
 O         2.020358         0.167388        -1.269972
 C         3.186681        -0.126710        -0.548971
 C         3.535354         0.997647         0.422362
 C         2.213227         0.778093         1.218112
 O         1.476450         1.915252         1.820727
 C         2.549170        -0.488447         1.984639
 C         2.400822        -1.144229         0.530042
 H        -0.593265        -0.584489         1.028500
 H        -0.654424         0.509182        -0.277955
 H        -0.373010        -1.228545        -0.781240
 H         3.953985        -0.534739        -1.256564
 H         4.475788         0.787281         0.981503
 H         3.515044         1.999871        -0.101106
 H         2.180046         2.355278         2.393385
 H         3.445495        -0.494174         2.671366
 H         1.647723        -0.811194         2.537848
 H         2.337058        -2.230982         0.426542
