19
Iteration:   320
 C        -0.140445        -0.212209        -0.123043
 C         1.338884        -0.076151         0.031519
 O         2.155686         0.214148        -1.217834
 C         3.266421        -0.198494        -0.394249
 C         3.471902         0.921099         0.579576
 C         2.165835         0.745185         1.268518
 O         1.538610         1.909305         1.829953
 C         2.402656        -0.650752         1.833521
 C         2.393882        -1.149034         0.395975
 H        -0.546155        -0.511824         0.825712
 H        -0.550858         0.750349        -0.293089
 H        -0.396029        -0.924268        -0.900398
 H         4.147500        -0.415543        -1.056216
 H         4.296806         0.617330         1.233301
 H         3.766511         1.845790         0.107706
 H         1.186737         1.888134         2.761922
 H         3.303115        -0.715509         2.392934
 H         1.555643        -0.951357         2.440945
 H         2.346382        -2.326251         0.058458
