19
Iteration:  1680
 C        -0.155354        -0.155930         0.033513
 C         1.347643        -0.173213         0.019539
 O         2.119035         0.240468        -1.213801
 C         3.299784        -0.075987        -0.406310
 C         3.459047         0.996190         0.564138
 C         2.146716         0.693556         1.239549
 O         1.500151         1.836800         1.742581
 C         2.426820        -0.666223         1.837358
 C         2.450322        -1.198126         0.375610
 H        -0.754891        -0.436425         0.915897
 H        -0.586005         0.843628        -0.325196
 H        -0.364285        -0.970181        -0.632456
 H         4.139079        -0.393185        -1.061586
 H         4.183511         0.617820         1.306254
 H         3.613776         2.007446         0.133040
 H         1.656316         1.955558         2.715745
 H         3.350084        -0.838869         2.365428
 H         1.585465        -1.028655         2.444535
 H         2.575114        -2.251279         0.179541
