19
Iteration:  1752charge 0 multiplicity 1
 C        -0.128725        -0.042275        -0.141552
 C         1.359569        -0.118071        -0.026297
 O         2.117266         0.169518        -1.301423
 C         3.303602        -0.224869        -0.434798
 C         3.408024         0.993441         0.495943
 C         2.086330         0.739041         1.228484
 O         1.421376         1.747694         2.002043
 C         2.553959        -0.591919         1.876600
 C         2.392697        -1.195282         0.474877
 H        -0.659384        -0.119652         0.826492
 H        -0.389886         0.914674        -0.543099
 H        -0.592492        -0.838694        -0.826464
 H         4.239264        -0.542835        -0.902022
 H         4.340744         0.924477         1.152783
 H         3.389755         1.954863        -0.011293
 H         2.132021         1.965155         2.689742
 H         3.644002        -0.679616         2.318645
 H         1.942925        -0.955091         2.711198
 H         2.624013        -2.242654         0.163257
