19
Iteration:  1839
 C        -0.091890        -0.221567        -0.019215
 C         1.441658        -0.064383        -0.045987
 O         2.108748         0.225474        -1.312948
 C         3.263894        -0.197404        -0.455070
 C         3.508996         1.027013         0.579275
 C         2.141178         0.778225         1.240863
 O         1.462045         1.783566         1.983013
 C         2.363091        -0.654580         1.888382
 C         2.387747        -1.157441         0.380174
 H        -0.244190        -0.772984         0.940108
 H        -0.494401         0.716671         0.200811
 H        -0.524112        -0.886609        -0.803045
 H         4.031627        -0.535014        -1.136195
 H         4.355030         0.643342         1.187003
 H         3.623031         1.988569         0.125250
 H         1.834531         2.620852         1.583811
 H         3.290884        -0.851614         2.486115
 H         1.500593        -1.168811         2.259240
 H         2.320302        -2.233158         0.087166
