19
Iteration:   506
 C        -0.048673        -0.077032        -0.078208
 C         1.416557        -0.080024        -0.032323
 O         2.139952         0.137418        -1.280509
 C         3.346448        -0.208128        -0.385475
 C         3.435209         1.056492         0.492697
 C         2.173753         0.741669         1.263656
 O         1.461356         1.803647         1.946768
 C         2.285779        -0.730885         1.930634
 C         2.357805        -1.186771         0.420797
 H        -0.455820        -0.327481         0.890607
 H        -0.420397         0.925706        -0.185095
 H        -0.480752        -0.693610        -0.862429
 H         4.205393        -0.399865        -0.993084
 H         4.394613         1.171690         0.982445
 H         3.317303         1.857597        -0.238775
 H         2.252365         2.334302         2.264438
 H         3.175549        -1.112469         2.401863
 H         1.361193        -1.072804         2.437398
 H         2.429008        -2.147856        -0.223334
