19
Iteration:   853charge 0 multiplicity 1
 C        -0.086372        -0.113468        -0.050038
 C         1.378564        -0.199705        -0.015988
 O         2.064913         0.226838        -1.185007
 C         3.298555        -0.201326        -0.509246
 C         3.448930         1.061710         0.433149
 C         2.155942         0.712892         1.211849
 O         1.576806         1.743900         1.870630
 C         2.407753        -0.594950         1.977823
 C         2.454870        -1.167003         0.530649
 H        -0.714515        -0.413622         0.851351
 H        -0.317146         0.983446        -0.237020
 H        -0.511975        -0.671503        -0.897701
 H         4.060764        -0.567716        -1.272098
 H         4.275677         1.031952         1.173117
 H         3.536325         1.997143        -0.138619
 H         0.574679         1.846793         1.875991
 H         3.238806        -0.727495         2.657063
 H         1.408517        -0.974960         2.365294
 H         2.497152        -2.235227         0.189413
