19
Iteration:   619
 C        -0.112165        -0.334671        -0.177182
 C         1.354347        -0.067646        -0.041350
 O         2.093770         0.197107        -1.296360
 C         3.262632        -0.203109        -0.389899
 C         3.546590         0.978106         0.503211
 C         2.125109         0.815854         1.240970
 O         1.743625         1.902816         2.096260
 C         2.231946        -0.564730         1.850262
 C         2.360536        -1.193779         0.410478
 H        -0.290039        -0.817422         0.789464
 H        -0.787901         0.495291        -0.267950
 H        -0.100928        -1.120300        -0.881487
 H         4.057678        -0.571841        -1.150435
 H         4.401890         0.729054         1.162528
 H         3.621702         1.989135         0.068416
 H         0.795163         1.955546         2.213036
 H         3.062158        -0.621620         2.565044
 H         1.316836        -0.794411         2.331233
 H         2.312405        -2.213452         0.088236
