19
Iteration:  1429charge 0 multiplicity 1
 C        -0.150395        -0.117117        -0.124245
 C         1.365582        -0.103201         0.052989
 O         2.128991         0.185135        -1.173274
 C         3.276628        -0.210441        -0.398517
 C         3.447369         1.085198         0.414748
 C         2.159568         0.710317         1.192590
 O         1.482602         1.757995         1.881483
 C         2.471345        -0.624731         1.907253
 C         2.418124        -1.227186         0.458629
 H        -0.623638        -0.611191         0.747602
 H        -0.434570         0.951097        -0.053792
 H        -0.220480        -0.651574        -1.039112
 H         4.179923        -0.411124        -1.051261
 H         4.335589         1.362240         0.930564
 H         3.139418         1.828746        -0.322602
 H         1.851490         1.871511         2.744131
 H         3.322303        -0.541591         2.622472
 H         1.564949        -0.999295         2.388818
 H         2.245855        -2.266809         0.132187
