19
Iteration:  2607charge 0 multiplicity 1
 C        -0.096717        -0.362398         0.027107
 C         1.343319        -0.111298         0.096937
 O         1.967357         0.137556        -1.185030
 C         3.240492        -0.135351        -0.523968
 C         3.446412         1.033318         0.422188
 C         2.225811         0.765774         1.238771
 O         1.682105         1.909212         1.823246
 C         2.402254        -0.566652         1.890393
 C         2.472292        -1.158053         0.451884
 H        -0.441931        -0.515999         1.044196
 H        -0.635242         0.575920        -0.465366
 H        -0.348053        -1.335303        -0.516057
 H         4.080177        -0.496692        -1.139340
 H         4.383465         1.063646         0.973263
 H         3.359062         2.088229         0.080385
 H         0.676779         1.951787         1.785911
 H         3.350034        -0.674794         2.509000
 H         1.435810        -0.914113         2.403619
 H         2.355753        -2.289772         0.344437
