19
Iteration:    50charge 0 multiplicity 1
 C        -0.035859        -0.099885        -0.057398
 C         1.439732        -0.060924         0.074574
 O         2.127636         0.153036        -1.142983
 C         3.362677        -0.249422        -0.462472
 C         3.517483         1.041980         0.418681
 C         2.202485         0.796113         1.259167
 O         1.442878         1.885486         1.751605
 C         2.286889        -0.719222         1.903795
 C         2.394054        -1.202881         0.495663
 H        -0.506630        -0.226740         0.962875
 H        -0.368209         0.918083        -0.396350
 H        -0.389919        -0.975729        -0.658016
 H         4.170623        -0.670642        -1.097722
 H         4.446053         0.973872         1.063872
 H         3.336253         1.865448        -0.313217
 H         1.035713         1.489613         2.570940
 H         2.892339        -1.084552         2.793573
 H         1.123710        -0.950704         2.087574
 H         2.137129        -2.236472         0.134314
