19
Iteration:   829charge 0 multiplicity 1
 C        -0.085569        -0.299283        -0.076873
 C         1.357501         0.049837        -0.045317
 O         2.088370         0.117052        -1.260310
 C         3.240485        -0.204597        -0.467837
 C         3.508828         0.936140         0.508138
 C         2.168501         0.855741         1.171238
 O         1.579900         1.892847         2.039711
 C         2.364084        -0.593741         1.859146
 C         2.409781        -1.148261         0.458606
 H        -0.421627        -0.797026         0.812573
 H        -0.807339         0.533428        -0.223412
 H        -0.239268        -1.087141        -0.835815
 H         4.231643        -0.514414        -1.119335
 H         4.431175         0.786487         1.139490
 H         3.739100         1.811300        -0.139020
 H         1.027375         1.454388         2.686345
 H         3.174062        -0.610616         2.553097
 H         1.415735        -0.965935         2.264354
 H         2.203619        -2.127323        -0.021232
