19
Iteration:  4488
 C        -0.043043        -0.403765         0.069528
 C         1.392838        -0.194826         0.076437
 O         1.958114         0.082254        -1.122648
 C         3.277655        -0.125579        -0.492389
 C         3.480785         1.150484         0.307838
 C         2.148649         0.781564         1.162729
 O         1.570347         1.920248         1.852060
 C         2.458769        -0.532307         1.906444
 C         2.460867        -1.173576         0.505628
 H        -0.399973        -0.256686         1.177661
 H        -0.696352         0.296690        -0.412529
 H        -0.180641        -1.431850        -0.286573
 H         3.915894        -0.509034        -1.201036
 H         4.340751         1.348655         1.021512
 H         3.368877         2.088462        -0.227317
 H         0.692816         2.145029         1.408444
 H         3.428083        -0.675899         2.273536
 H         1.618226        -0.973831         2.392870
 H         2.348987        -2.312740         0.225426
