19
Iteration:  1004charge 0 multiplicity 1
 C         0.014843        -0.301729        -0.241620
 C         1.433248        -0.028301         0.076048
 O         2.010629         0.162670        -1.218362
 C         3.208648        -0.248703        -0.460663
 C         3.493398         1.049724         0.376979
 C         2.198804         0.794227         1.279560
 O         1.674210         1.843627         1.990834
 C         2.324783        -0.582909         1.964639
 C         2.336685        -1.140995         0.494301
 H        -0.542135        -0.776368         0.550175
 H        -0.549377         0.631587        -0.453079
 H         0.000844        -0.904226        -1.167915
 H         3.949367        -0.726310        -1.273699
 H         4.435353         0.996238         1.001025
 H         3.490357         1.951505        -0.262755
 H         0.754319         1.765388         2.353212
 H         3.002856        -0.749633         2.767096
 H         1.338328        -0.797929         2.417645
 H         2.053911        -2.200243         0.316499
