19
Iteration:  3954charge 0 multiplicity 1
 C        -0.124677        -0.343334         0.028505
 C         1.338751        -0.138616         0.055866
 O         1.976435         0.081593        -1.242948
 C         3.300449        -0.207667        -0.432456
 C         3.479008         1.109411         0.335141
 C         2.171184         0.852171         1.188191
 O         1.420429         1.903556         1.785456
 C         2.590507        -0.551327         1.918741
 C         2.453056        -1.201754         0.559792
 H        -0.449793        -0.812305         0.989361
 H        -0.682142         0.610231         0.005462
 H        -0.544824        -1.128353        -0.793232
 H         4.051242        -0.636686        -1.124739
 H         4.246483         1.114004         1.086970
 H         3.588270         1.971096        -0.359146
 H         1.879440         2.322474         2.517309
 H         3.504801        -0.419979         2.630270
 H         1.919267        -1.001248         2.664179
 H         2.634377        -2.226250         0.321437
