19
Iteration:   974
 C        -0.226076        -0.409514        -0.288202
 C         1.329811        -0.123030        -0.042855
 O         2.104731         0.243324        -1.227130
 C         3.271108        -0.202178        -0.359969
 C         3.425414         0.992942         0.512671
 C         2.074038         0.778666         1.318252
 O         1.821777         1.957389         1.950617
 C         2.439340        -0.561951         1.923757
 C         2.337874        -1.151105         0.400918
 H        -0.784369        -0.867160         0.553939
 H        -0.895717         0.356094        -0.661546
 H        -0.360630        -1.094559        -1.084354
 H         4.022687        -0.619620        -1.015442
 H         4.122587         0.717729         1.286056
 H         3.737934         1.921559         0.037432
 H         1.338203         2.037863         2.801027
 H         3.340849        -0.564094         2.493930
 H         1.528441        -0.937502         2.458488
 H         2.324416        -2.254768         0.450203
