19
Iteration:  3778
 C        -0.139988        -0.386669         0.200263
 C         1.429850        -0.124221         0.089250
 O         2.029892         0.056100        -1.247326
 C         3.279104        -0.185642        -0.497722
 C         3.482294         1.049277         0.377435
 C         2.195763         0.848119         1.099146
 O         1.517118         1.876589         1.804899
 C         2.405668        -0.463639         1.879990
 C         2.480165        -1.099100         0.500592
 H        -0.361726        -0.605875         1.201004
 H        -0.832331         0.404872         0.017154
 H        -0.567091        -1.176799        -0.545246
 H         4.256168        -0.515837        -0.958971
 H         4.378952         1.101560         0.958479
 H         3.496212         1.990923        -0.236123
 H         0.915851         1.425963         2.389350
 H         3.309144        -0.398902         2.571987
 H         1.464133        -0.841529         2.248762
 H         2.603202        -2.179562         0.109869
