19
Iteration:  3303charge 0 multiplicity 1
 C        -0.097251        -0.407011         0.038150
 C         1.350101        -0.184100         0.013579
 O         2.002633         0.145579        -1.285711
 C         3.250613        -0.198611        -0.497099
 C         3.389555         1.005665         0.393308
 C         2.144990         0.767380         1.208814
 O         1.523815         1.896532         1.874910
 C         2.569579        -0.431736         1.967223
 C         2.363565        -1.131823         0.520406
 H        -0.326015        -0.821142         1.013026
 H        -0.564877         0.573562        -0.184304
 H        -0.138834        -1.127056        -0.756832
 H         4.095101        -0.557081        -1.062769
 H         4.282466         0.999293         1.018882
 H         3.512846         1.966581        -0.150301
 H         2.207041         2.617003         1.841008
 H         3.600098        -0.585637         2.382486
 H         1.853426        -0.779150         2.712989
 H         2.394554        -2.216452         0.494548
