19
Iteration:  4325
 C        -0.073735        -0.382096         0.108422
 C         1.364106        -0.114078         0.098344
 O         1.986114         0.079498        -1.173099
 C         3.318222        -0.165710        -0.499868
 C         3.418583         1.051709         0.266740
 C         2.160255         0.795571         1.202005
 O         1.434827         1.870835         1.742807
 C         2.502892        -0.567623         1.938753
 C         2.483495        -1.069709         0.478164
 H        -0.361954        -0.542049         1.208384
 H        -0.696346         0.442285         0.017160
 H        -0.290920        -1.281281        -0.477666
 H         4.127848        -0.425582        -1.120043
 H         4.257892         1.256571         0.990334
 H         3.550897         1.954661        -0.328663
 H         2.033298         2.211899         2.401305
 H         3.403941        -0.472327         2.578956
 H         1.682253        -0.963716         2.571842
 H         2.468665        -2.182542         0.394022
