19
Iteration:  3200charge 0 multiplicity 1
 C        -0.077013        -0.286710         0.066445
 C         1.389190        -0.212442         0.041320
 O         1.988134         0.120145        -1.227427
 C         3.295156        -0.182065        -0.557225
 C         3.446365         1.079347         0.382508
 C         2.167073         0.793537         1.173617
 O         1.488462         1.834707         1.913029
 C         2.490940        -0.493937         1.951117
 C         2.438495        -1.163425         0.535898
 H        -0.135541        -0.362242         1.201920
 H        -0.538056         0.558376        -0.483883
 H        -0.369831        -1.294429        -0.313816
 H         4.107068        -0.557574        -1.261340
 H         4.309752         0.891403         1.075498
 H         3.486466         1.989867        -0.225429
 H         1.210162         2.464123         1.192568
 H         3.451973        -0.492725         2.466185
 H         1.581113        -0.880071         2.480216
 H         2.470397        -2.226578         0.250745
