19
Iteration:  4501charge 0 multiplicity 1
 C        -0.095245        -0.423482         0.151878
 C         1.407527        -0.136893         0.075195
 O         2.006873         0.093142        -1.293955
 C         3.252307        -0.202853        -0.493499
 C         3.401321         1.117091         0.367823
 C         2.164059         0.843096         1.173362
 O         1.544744         1.927189         1.870639
 C         2.524111        -0.587916         1.939591
 C         2.472125        -1.121175         0.496311
 H        -0.609982        -0.511706         1.204290
 H        -0.433222         0.350102        -0.492756
 H        -0.409660        -1.278581        -0.398544
 H         4.134871        -0.477020        -1.079936
 H         4.438837         1.024628         0.919976
 H         3.313764         1.919507        -0.338584
 H         0.678510         2.019101         1.507916
 H         3.407248        -0.518255         2.560781
 H         1.698025        -0.775231         2.633550
 H         2.450283        -2.148402         0.200892
