19
Iteration:  3642
 C        -0.128991        -0.512140         0.085879
 C         1.395877        -0.197992        -0.031077
 O         1.989561         0.131358        -1.283520
 C         3.205830        -0.180582        -0.565726
 C         3.424235         1.052359         0.426900
 C         2.109528         0.820360         1.211187
 O         1.695153         2.039286         1.871340
 C         2.412502        -0.536031         1.954373
 C         2.527802        -1.096567         0.530200
 H        -0.334653        -0.526449         1.178242
 H        -0.638348         0.391554        -0.343243
 H        -0.405028        -1.278642        -0.552544
 H         3.993958        -0.424881        -1.307749
 H         4.209055         0.784493         1.156072
 H         3.561439         1.928474        -0.204888
 H         0.979639         1.774064         2.492822
 H         3.327848        -0.637802         2.530513
 H         1.543122        -1.012381         2.527849
 H         2.456926        -2.130378         0.242563
