19
Iteration:  1175charge 0 multiplicity 1
 C        -0.116192        -0.230546        -0.191178
 C         1.344080        -0.070889         0.038779
 O         2.121992         0.239544        -1.198504
 C         3.262781        -0.265852        -0.484718
 C         3.517860         0.974805         0.477031
 C         2.055536         0.746215         1.175402
 O         1.614554         1.857614         1.923967
 C         2.406339        -0.566408         1.924239
 C         2.417680        -1.130897         0.501117
 H        -0.657901        -0.498559         0.777280
 H        -0.660446         0.702946        -0.593610
 H        -0.319275        -1.198818        -0.797525
 H         4.064697        -0.702151        -1.036178
 H         4.309745         0.553808         1.101776
 H         3.502385         1.961140         0.026472
 H         1.279833         1.488014         2.733980
 H         3.294000        -0.383757         2.692645
 H         1.489836        -0.983155         2.422286
 H         2.267798        -2.180213         0.246068
