19
Iteration:  3315
 C        -0.032788        -0.465427         0.029281
 C         1.393871        -0.071888         0.045700
 O         2.000550         0.145293        -1.167086
 C         3.232266        -0.297335        -0.428238
 C         3.454327         1.090258         0.324902
 C         2.149316         0.873297         1.149218
 O         1.523026         1.873398         1.888537
 C         2.475960        -0.518746         1.911996
 C         2.416724        -1.144705         0.486587
 H        -0.336065        -0.821803         1.054184
 H        -0.725886         0.387372        -0.127064
 H        -0.433681        -1.192449        -0.610043
 H         3.976116        -0.735532        -1.117124
 H         4.353179         1.101863         0.944343
 H         3.341758         1.858978        -0.459771
 H         2.125871         2.659319         1.949063
 H         3.423225        -0.511336         2.463433
 H         1.600894        -0.750820         2.575159
 H         2.223634        -2.098360         0.025986
