19
Iteration:  4495
 C        -0.057755        -0.424273         0.150578
 C         1.394199        -0.165407         0.038347
 O         1.981802         0.081080        -1.200886
 C         3.251612        -0.160996        -0.474099
 C         3.454668         1.157964         0.351601
 C         2.191338         0.785947         1.132819
 O         1.545969         1.943396         1.872460
 C         2.463318        -0.574018         1.915704
 C         2.470037        -1.143436         0.497835
 H        -0.576522        -0.418779         1.043827
 H        -0.475864         0.422220        -0.510462
 H        -0.307906        -1.403776        -0.367778
 H         4.016179        -0.497932        -1.244185
 H         4.339946         1.195095         0.904132
 H         3.386782         2.028123        -0.357340
 H         0.640220         2.127479         1.486077
 H         3.437938        -0.658677         2.507396
 H         1.756072        -0.900664         2.738059
 H         2.339244        -2.210735         0.177946
