19
Iteration:  3106charge 0 multiplicity 1
 C        -0.043886        -0.269509         0.073058
 C         1.439235        -0.218319         0.065751
 O         1.998665         0.084124        -1.232631
 C         3.224706        -0.221071        -0.431327
 C         3.402697         1.137082         0.248328
 C         2.190369         0.825771         1.186934
 O         1.480972         1.803130         1.872627
 C         2.445134        -0.508749         1.959566
 C         2.450006        -1.167416         0.500133
 H        -0.217264        -0.692034         1.011356
 H        -0.405025         0.787512        -0.005976
 H        -0.480258        -0.939188        -0.714239
 H         4.063902        -0.714476        -0.926010
 H         4.354145         1.375903         0.762247
 H         3.137787         1.950231        -0.465624
 H         2.058237         2.533690         2.016115
 H         3.429419        -0.577601         2.527109
 H         1.575593        -0.796511         2.491728
 H         2.508514        -2.282528         0.305441
