19
Iteration:  2387charge 0 multiplicity 1
 C        -0.101560         0.010197         0.018162
 C         1.377736        -0.149185         0.010343
 O         2.036266         0.081019        -1.248880
 C         3.284562        -0.251850        -0.485822
 C         3.469752         1.122471         0.336363
 C         2.236358         0.760866         1.181859
 O         1.444722         1.663496         1.926996
 C         2.483487        -0.566436         1.889688
 C         2.449029        -1.114725         0.525288
 H        -0.387464         0.109052         1.087050
 H        -0.364403         0.958946        -0.539426
 H        -0.537922        -0.836712        -0.470984
 H         4.097944        -0.767647        -0.968340
 H         4.375171         1.145392         0.947461
 H         3.161119         1.987587        -0.249135
 H         0.907317         1.287071         2.675839
 H         3.383569        -0.773980         2.516491
 H         1.686412        -0.830152         2.586772
 H         2.596258        -2.151808         0.319472
