19
Iteration:  3520charge 0 multiplicity 1
 C        -0.114196        -0.332447         0.072025
 C         1.382202        -0.051260         0.037775
 O         1.981878         0.060149        -1.189712
 C         3.310006        -0.203661        -0.379547
 C         3.401220         1.069039         0.395297
 C         2.086719         0.819974         1.131867
 O         1.524787         1.882728         1.794295
 C         2.560208        -0.557692         1.863023
 C         2.457822        -1.151709         0.452618
 H        -0.414352        -0.608234         1.120075
 H        -0.772690         0.577015        -0.115026
 H        -0.203741        -1.083648        -0.730116
 H         4.021059        -0.626293        -1.132142
 H         4.194957         1.066425         1.166717
 H         3.559234         1.976858        -0.283177
 H         1.828685         1.928591         2.694113
 H         3.551242        -0.457002         2.415585
 H         1.776063        -0.971097         2.543384
 H         2.344897        -2.212802         0.235025
