19
Iteration:    32charge 0 multiplicity 1
 C        -0.164897        -0.050053        -0.017583
 C         1.404228        -0.165589        -0.039137
 O         2.133717         0.193461        -1.254503
 C         3.320215        -0.208253        -0.377207
 C         3.499569         0.931680         0.599444
 C         2.087175         0.698282         1.232136
 O         1.479059         1.897311         1.674458
 C         2.392672        -0.658800         1.945272
 C         2.453879        -1.206705         0.443468
 H        -0.615067        -0.100237         0.950292
 H        -0.404345         0.927904        -0.403136
 H        -0.673876        -0.778774        -0.620628
 H         4.185249        -0.535507        -0.941122
 H         4.325276         0.759575         1.319701
 H         3.478375         1.919655         0.122137
 H         1.363429         1.974536         2.659248
 H         3.364452        -0.655737         2.441922
 H         1.655230        -1.051467         2.531161
 H         2.608316        -2.218659         0.243396
