19
Iteration:  2388
 C        -0.101771         0.009917         0.023926
 C         1.380859        -0.144074         0.009929
 O         2.033947         0.083424        -1.255070
 C         3.288832        -0.251668        -0.498437
 C         3.468573         1.114840         0.342940
 C         2.229599         0.771100         1.188099
 O         1.442519         1.663327         1.921737
 C         2.493379        -0.567141         1.890329
 C         2.444642        -1.123516         0.530627
 H        -0.374408         0.085002         1.075792
 H        -0.361716         0.974480        -0.550469
 H        -0.546887        -0.837455        -0.466001
 H         4.086885        -0.751423        -0.978288
 H         4.367889         1.155205         1.008987
 H         3.190064         1.990391        -0.252542
 H         0.906739         1.279340         2.665667
 H         3.397984        -0.763707         2.508053
 H         1.673440        -0.836534         2.576109
 H         2.593222        -2.180653         0.362206
