19
Iteration:  4032
 C        -0.140699        -0.318007         0.041994
 C         1.377252        -0.109506         0.045959
 O         1.984166         0.134876        -1.236867
 C         3.278894        -0.194626        -0.437676
 C         3.415324         1.077036         0.412888
 C         2.091424         0.745542         1.121610
 O         1.563839         1.856334         1.833737
 C         2.554325        -0.513595         1.956961
 C         2.560029        -1.198517         0.572140
 H        -0.511412        -0.587288         1.054706
 H        -0.632768         0.461103        -0.581962
 H        -0.500574        -1.229055        -0.516108
 H         3.983240        -0.557668        -1.176279
 H         4.248803         1.088038         1.124646
 H         3.462372         1.964448        -0.174035
 H         0.968049         2.356577         1.302440
 H         3.557618        -0.563856         2.531181
 H         1.620462        -0.733219         2.577070
 H         2.406962        -2.138195         0.217218
