19
Iteration:   831charge 0 multiplicity 1
 C        -0.092968        -0.286878        -0.080138
 C         1.366409         0.033285        -0.021785
 O         2.070901         0.121354        -1.260684
 C         3.253179        -0.190362        -0.464782
 C         3.529435         0.932426         0.499616
 C         2.165580         0.848522         1.159605
 O         1.577919         1.882248         2.038264
 C         2.355572        -0.590541         1.853741
 C         2.431261        -1.147520         0.454942
 H        -0.447246        -0.771542         0.881852
 H        -0.794451         0.597998        -0.237723
 H        -0.248150        -1.034194        -0.879598
 H         4.190676        -0.530984        -1.043341
 H         4.448463         0.771834         1.100212
 H         3.672597         1.824304        -0.133724
 H         0.954575         1.398007         2.582780
 H         3.149712        -0.567146         2.583155
 H         1.368255        -0.953997         2.300332
 H         2.234265        -2.188073         0.062324
