19
Iteration:   595charge 0 multiplicity 1
 C        -0.207505        -0.184908        -0.094612
 C         1.338200        -0.174341        -0.046778
 O         2.169386         0.185787        -1.288629
 C         3.358072        -0.183606        -0.410294
 C         3.444406         1.013327         0.501377
 C         2.075677         0.761557         1.274152
 O         1.714995         1.833621         1.968444
 C         2.309769        -0.674227         1.878703
 C         2.431170        -1.102305         0.438430
 H        -0.447429        -0.271526         0.971049
 H        -0.441557         0.804977        -0.382974
 H        -0.661861        -0.942490        -0.681932
 H         4.115800        -0.416052        -1.133199
 H         4.204633         1.029620         1.258876
 H         3.357331         1.996584         0.036281
 H         0.726425         2.032670         1.975371
 H         3.151222        -0.850273         2.518674
 H         1.445849        -1.172937         2.298051
 H         2.421573        -2.206062         0.242325
