19
Iteration:  1243charge 0 multiplicity 1
 C        -0.008806        -0.036409         0.051341
 C         1.425553        -0.172831        -0.057694
 O         2.025615         0.212734        -1.228398
 C         3.336257        -0.175914        -0.481094
 C         3.515547         1.006586         0.501380
 C         2.112121         0.735296         1.150670
 O         1.395907         1.737435         1.904047
 C         2.378773        -0.590526         1.915401
 C         2.530000        -1.287385         0.478108
 H        -0.508413        -0.179636         1.000447
 H        -0.212313         1.063520        -0.085899
 H        -0.595647        -0.595977        -0.676565
 H         4.094826        -0.815908        -1.054731
 H         4.398120         0.776040         1.124308
 H         3.513893         1.997626         0.067740
 H         0.894283         2.351991         1.336349
 H         3.234700        -0.490103         2.665026
 H         1.461381        -0.932370         2.415845
 H         2.507686        -2.349516         0.171948
