19
Iteration:  4067charge 0 multiplicity 1
 C        -0.107899        -0.321601         0.102903
 C         1.445235        -0.126171         0.015129
 O         2.012449         0.107063        -1.273192
 C         3.280499        -0.212552        -0.470944
 C         3.487510         1.067830         0.351286
 C         2.225500         0.848343         1.195453
 O         1.395298         1.851947         1.886067
 C         2.551571        -0.552966         1.956233
 C         2.470962        -1.198567         0.531366
 H        -0.646989        -0.073340         1.093948
 H        -0.627755         0.593697        -0.420076
 H        -0.269692        -1.223791        -0.388894
 H         3.899645        -0.583255        -1.286051
 H         4.403520         1.132554         1.014163
 H         3.390927         1.935736        -0.298376
 H         0.783881         2.185436         1.253650
 H         3.438251        -0.620895         2.722725
 H         1.586645        -0.705264         2.617603
 H         2.286905        -2.259393         0.182807
