19
Iteration:  1415charge 0 multiplicity 1
 C        -0.044287        -0.004074        -0.045100
 C         1.423670        -0.116217         0.030671
 O         2.055364         0.108101        -1.260918
 C         3.334120        -0.171514        -0.485028
 C         3.338022         1.002235         0.441288
 C         2.080971         0.709638         1.253557
 O         1.443821         1.780433         1.845073
 C         2.435421        -0.644462         1.942837
 C         2.539306        -1.149633         0.470527
 H        -0.540371        -0.498893         0.791059
 H        -0.454279         0.978237        -0.197379
 H        -0.605535        -0.430728        -0.888445
 H         4.133178        -0.530728        -1.044786
 H         4.214878         0.853202         1.154791
 H         3.442427         1.979646        -0.025727
 H         1.728595         1.781519         2.791678
 H         3.395305        -0.832332         2.472561
 H         1.628261        -1.066865         2.525535
 H         2.784684        -2.182567         0.234075
