19
Iteration:  4791charge 0 multiplicity 1
 C        -0.074041        -0.356600         0.133350
 C         1.420236        -0.172612         0.049322
 O         1.979784         0.081741        -1.229022
 C         3.232582        -0.149668        -0.569537
 C         3.442864         1.093105         0.409492
 C         2.193446         0.821857         1.198968
 O         1.444530         1.794724         1.745933
 C         2.499439        -0.461913         1.955346
 C         2.478269        -1.159402         0.539086
 H        -0.497816        -0.870605         0.969195
 H        -0.491699         0.618416         0.247907
 H        -0.433458        -0.946659        -0.675029
 H         4.022493        -0.380409        -1.197957
 H         4.348408         0.951080         0.943467
 H         3.558173         2.002707        -0.207129
 H         1.938343         2.372642         2.302382
 H         3.392704        -0.612274         2.504332
 H         1.569526        -0.490761         2.508489
 H         2.489216        -2.268519         0.206797
