19
Iteration:  1598charge 0 multiplicity 1
 C        -0.135102        -0.163300        -0.170729
 C         1.412815        -0.175624        -0.019986
 O         2.123368         0.167280        -1.268137
 C         3.258098        -0.178886        -0.404386
 C         3.340486         1.058950         0.492944
 C         2.126390         0.753016         1.236707
 O         1.550063         1.839757         2.042515
 C         2.479517        -0.671671         1.943469
 C         2.445966        -1.232481         0.420200
 H        -0.489041        -0.543832         0.742225
 H        -0.283994         0.865286        -0.256621
 H        -0.529006        -0.524890        -1.140093
 H         4.138331        -0.347177        -1.001074
 H         4.162150         1.119680         1.192268
 H         3.331863         2.008739        -0.001233
 H         1.665888         2.584839         1.476785
 H         3.404658        -0.940899         2.511267
 H         1.566107        -1.001586         2.474005
 H         2.127914        -2.238865         0.113473
