19
Iteration:  4980charge 0 multiplicity 1
 C        -0.106292        -0.390133         0.196596
 C         1.381163        -0.057530         0.076130
 O         2.006676         0.179202        -1.188980
 C         3.231994        -0.280823        -0.537999
 C         3.393839         1.032029         0.307798
 C         2.167914         0.779277         1.205669
 O         1.442875         1.881743         1.672119
 C         2.601140        -0.494850         1.912979
 C         2.532273        -1.141973         0.537365
 H        -0.405039        -0.831287         1.215968
 H        -0.509534         0.609948         0.238092
 H        -0.360675        -1.045575        -0.630788
 H         4.179057        -0.371586        -1.254200
 H         4.349048         1.203828         1.047240
 H         3.085550         1.808634        -0.328389
 H         1.088474         1.745081         2.588124
 H         3.538495        -0.471171         2.501473
 H         1.802552        -0.964990         2.514464
 H         2.617289        -2.224496         0.454929
