19
Iteration:  2703
 C        -0.122169        -0.107784         0.124307
 C         1.413816        -0.251765         0.132793
 O         2.045433         0.009706        -1.304190
 C         3.306244        -0.163710        -0.518808
 C         3.380912         1.057537         0.419872
 C         2.072044         0.767939         1.146210
 O         1.485962         1.879836         1.818783
 C         2.521493        -0.520391         1.892432
 C         2.513963        -1.197047         0.498790
 H        -0.628146        -0.449008         0.974830
 H        -0.255974         0.994073         0.141431
 H        -0.661129        -0.434654        -0.742444
 H         4.212037        -0.363585        -1.134719
 H         4.309417         1.042127         0.973867
 H         3.599712         2.010510        -0.070290
 H         0.982188         1.484682         2.594197
 H         3.522858        -0.383376         2.339331
 H         1.853502        -1.054217         2.543696
 H         2.530681        -2.321177         0.262801
