19
Iteration:   819charge 0 multiplicity 1
 C        -0.074934        -0.377658        -0.086018
 C         1.367791         0.036705        -0.070199
 O         2.158351         0.152665        -1.297137
 C         3.245613        -0.283682        -0.459323
 C         3.461211         0.999906         0.504234
 C         2.115746         0.832758         1.287634
 O         1.620028         1.929693         2.008855
 C         2.388106        -0.594095         1.868413
 C         2.285978        -1.088690         0.403122
 H        -0.221413        -0.854700         0.907488
 H        -0.870447         0.396592        -0.281766
 H        -0.196680        -1.167092        -0.855172
 H         4.114868        -0.563425        -1.225684
 H         4.193718         0.762894         1.324932
 H         3.742914         1.932591        -0.017444
 H         1.518473         1.650126         2.939787
 H         3.268816        -0.884555         2.403046
 H         1.509597        -0.973718         2.470519
 H         2.021400        -2.124542         0.039963
