19
Iteration:  3148
 C        -0.118931        -0.470065        -0.022208
 C         1.293547        -0.206899        -0.051126
 O         1.993395         0.068791        -1.297846
 C         3.172406        -0.171241        -0.466777
 C         3.454989         1.046896         0.437310
 C         2.167129         0.883376         1.240244
 O         1.575558         1.917448         1.936829
 C         2.550201        -0.482215         1.935399
 C         2.425516        -1.089963         0.566343
 H        -0.483671        -0.601379         0.966581
 H        -0.506685         0.462036        -0.561764
 H        -0.419621        -1.381636        -0.632650
 H         3.937179        -0.468322        -1.212437
 H         4.447586         0.846229         0.932209
 H         3.470385         1.853697        -0.327901
 H         2.180866         2.669851         2.042987
 H         3.626530        -0.416960         2.390034
 H         1.933527        -0.916635         2.727273
 H         2.368346        -2.164025         0.256081
