19
Iteration:  1705charge 0 multiplicity 1
 C        -0.015582         0.028793        -0.026992
 C         1.430348        -0.118423         0.024695
 O         2.041848         0.169604        -1.261854
 C         3.355988        -0.224363        -0.496566
 C         3.439804         1.036660         0.413265
 C         2.120269         0.706755         1.256064
 O         1.362117         1.708411         1.892563
 C         2.425973        -0.647567         1.950324
 C         2.534296        -1.158630         0.426782
 H        -0.525323        -0.049702         0.921233
 H        -0.307859         1.022142        -0.460600
 H        -0.474696        -0.821231        -0.597418
 H         4.084035        -0.580563        -1.276520
 H         4.189840         0.922335         1.179969
 H         3.535856         1.984798        -0.205913
 H         1.510493         1.707694         2.840067
 H         3.189405        -0.585879         2.728178
 H         1.543858        -1.118231         2.421062
 H         2.301934        -2.231145         0.253352
