19
Iteration:   615charge 0 multiplicity 1
 C        -0.156262        -0.318012        -0.122473
 C         1.365296        -0.086410        -0.082762
 O         2.118529         0.191151        -1.278564
 C         3.279910        -0.181227        -0.430226
 C         3.521066         0.993871         0.525027
 C         2.122438         0.778749         1.219841
 O         1.746471         1.922777         2.113546
 C         2.250401        -0.554254         1.840028
 C         2.375535        -1.216325         0.416516
 H        -0.377298        -0.861167         0.796634
 H        -0.741887         0.571372        -0.453079
 H        -0.279882        -1.114718        -0.911111
 H         4.089986        -0.545486        -0.976041
 H         4.389134         0.716733         1.102624
 H         3.653000         1.969147         0.057895
 H         0.752630         1.908484         2.096718
 H         3.005780        -0.670494         2.617751
 H         1.268508        -0.720109         2.376926
 H         2.317226        -2.283607         0.016822
