19
Iteration:  3990charge 0 multiplicity 1
 C        -0.074889        -0.359984        -0.009667
 C         1.415130        -0.106499         0.114292
 O         1.993975         0.001715        -1.296330
 C         3.286154        -0.223637        -0.481820
 C         3.368559         1.144063         0.322765
 C         2.129022         0.835471         1.144314
 O         1.534381         1.867476         1.953931
 C         2.458471        -0.522605         1.969874
 C         2.480817        -1.166513         0.517769
 H        -0.332221        -0.818453         1.035788
 H        -0.745326         0.610273        -0.107342
 H        -0.248292        -1.058628        -0.811804
 H         4.195850        -0.549875        -0.980286
 H         4.272870         1.271447         1.021356
 H         3.237818         1.966092        -0.358380
 H         2.102164         2.653043         1.822211
 H         3.380500        -0.364916         2.572630
 H         1.465235        -0.818647         2.411034
 H         2.459287        -2.226819         0.414394
