19
Iteration:  4602charge 0 multiplicity 1
 C        -0.166099        -0.355119         0.060554
 C         1.341679        -0.125750         0.059323
 O         2.019966         0.049856        -1.230212
 C         3.254209        -0.222951        -0.449055
 C         3.493878         1.128386         0.333292
 C         2.201147         0.856555         1.213287
 O         1.409442         1.824919         1.799762
 C         2.537632        -0.476753         1.877921
 C         2.505917        -1.151198         0.529793
 H        -0.178948        -0.820797         1.056078
 H        -0.690383         0.638013         0.281135
 H        -0.658904        -0.990167        -0.747133
 H         4.161125        -0.688300        -1.058889
 H         4.346876         1.182495         1.111153
 H         3.357615         1.986188        -0.453198
 H         1.916984         2.172646         2.608653
 H         3.592867        -0.518484         2.262962
 H         1.654761        -0.828121         2.470790
 H         2.604164        -2.188636         0.318668
