19
Iteration:   144
 C        -0.083259        -0.265771        -0.155386
 C         1.367521        -0.058898         0.054526
 O         2.092704         0.317079        -1.171463
 C         3.345364        -0.244521        -0.483283
 C         3.561087         0.958548         0.447004
 C         2.146331         0.761618         1.174658
 O         1.575103         1.826821         1.867498
 C         2.276839        -0.559755         1.970092
 C         2.376287        -1.225698         0.524349
 H        -0.620182        -0.660552         0.714262
 H        -0.473900         0.689128        -0.442483
 H        -0.122135        -0.952513        -0.980288
 H         4.172174        -0.697803        -1.078686
 H         4.443777         0.978298         1.034053
 H         3.401346         1.822350        -0.191957
 H         1.060922         1.535292         2.666454
 H         3.057530        -0.421839         2.651296
 H         1.370653        -0.860609         2.418772
 H         2.155157        -2.331204         0.161080
