19
Iteration:  3212charge 0 multiplicity 1
 C        -0.096453        -0.286979         0.155717
 C         1.386196        -0.196954        -0.021949
 O         2.059431         0.030222        -1.251366
 C         3.214157        -0.209151        -0.482058
 C         3.565539         1.119616         0.413371
 C         2.170837         0.894634         1.140990
 O         1.405956         1.815617         1.949424
 C         2.536162        -0.481988         1.843990
 C         2.441681        -1.211583         0.453045
 H        -0.538012        -0.210012         1.179985
 H        -0.639438         0.651577        -0.223022
 H        -0.651269        -1.150182        -0.364881
 H         4.010054        -0.605376        -1.166653
 H         4.408717         1.062547         1.176990
 H         3.799361         2.055694        -0.133778
 H         0.900416         2.424873         1.437055
 H         3.474084        -0.562553         2.482430
 H         1.791358        -0.644242         2.635713
 H         2.386876        -2.313441         0.240386
