19
Iteration:  3322charge 0 multiplicity 1
 C        -0.098270        -0.446636         0.079204
 C         1.361393        -0.007116         0.129182
 O         2.042188         0.127011        -1.169340
 C         3.242810        -0.251383        -0.458917
 C         3.511489         1.085268         0.263873
 C         2.149126         0.859404         1.156482
 O         1.537573         1.861777         1.876134
 C         2.392681        -0.571626         1.834595
 C         2.475323        -1.168686         0.528464
 H        -0.277388        -0.888138         1.016586
 H        -0.750721         0.394054        -0.202409
 H        -0.204975        -1.371456        -0.625042
 H         4.029468        -0.652858        -1.049790
 H         4.349350         1.414409         0.908428
 H         3.361358         1.861939        -0.503529
 H         1.922681         2.764103         2.068378
 H         3.275782        -0.500896         2.551319
 H         1.525426        -0.876782         2.349192
 H         2.083088        -2.174899         0.257590
