19
Iteration:  1965
 C        -0.134208        -0.293353         0.024611
 C         1.399106        -0.026203        -0.035051
 O         2.045692         0.248383        -1.254098
 C         3.313207        -0.117371        -0.419368
 C         3.480584         0.912341         0.627740
 C         2.150882         0.767729         1.277885
 O         1.528384         1.777878         1.857741
 C         2.335166        -0.698509         1.810334
 C         2.451264        -1.083568         0.344832
 H        -0.370340        -0.188728         1.066032
 H        -0.679668         0.489953        -0.562694
 H        -0.370048        -1.308689        -0.338625
 H         4.211648        -0.252217        -1.043621
 H         4.389369         0.699647         1.167077
 H         3.644750         1.963620         0.275197
 H         2.127074         2.578428         1.670522
 H         3.069595        -0.934531         2.614573
 H         1.351313        -1.062510         2.287751
 H         2.490002        -2.155617         0.102911
