19
Iteration:  2333
 C        -0.164516        -0.307940        -0.165115
 C         1.284966        -0.167516         0.010694
 O         2.015111         0.171641        -1.248616
 C         3.266377        -0.117893        -0.473510
 C         3.450787         0.948283         0.485473
 C         2.144782         0.803764         1.248703
 O         1.711426         1.894084         1.954153
 C         2.483111        -0.603492         1.922106
 C         2.406725        -1.152054         0.455888
 H        -0.707152        -0.321879         0.841935
 H        -0.582853         0.687691        -0.611857
 H        -0.487693        -1.206132        -0.668337
 H         4.190648        -0.177778        -1.047195
 H         4.392396         0.872393         1.175523
 H         3.714494         1.906033        -0.087192
 H         0.899857         1.852040         2.533550
 H         3.468264        -0.492729         2.495225
 H         1.681437        -1.050657         2.590184
 H         2.349066        -2.175938         0.148490
