19
Iteration:  2679charge 0 multiplicity 1
 C        -0.109313        -0.240320        -0.000972
 C         1.388322        -0.062092         0.016869
 O         2.015628         0.041548        -1.256157
 C         3.281553        -0.282756        -0.453076
 C         3.435420         1.098040         0.271176
 C         2.203462         0.810078         1.209947
 O         1.537783         1.835150         1.918067
 C         2.460497        -0.497307         1.931861
 C         2.414507        -1.116078         0.572005
 H        -0.325801        -1.099982         0.694786
 H        -0.757510         0.551625         0.214817
 H        -0.408709        -0.674552        -0.918715
 H         4.030864        -0.691406        -1.135217
 H         4.434625         1.219334         0.693586
 H         3.431285         1.999418        -0.323794
 H         1.199676         1.452539         2.780210
 H         3.393284        -0.527235         2.462390
 H         1.648347        -0.850972         2.478167
 H         2.610856        -2.136487         0.359085
