19
Iteration:  3527charge 0 multiplicity 1
 C        -0.090950        -0.296610         0.101034
 C         1.403472        -0.064729         0.057075
 O         2.013465         0.081529        -1.232916
 C         3.279581        -0.226247        -0.388208
 C         3.395165         1.088253         0.356752
 C         2.122202         0.742191         1.129558
 O         1.481247         1.930024         1.814868
 C         2.585307        -0.565260         1.877093
 C         2.457927        -1.166671         0.480783
 H        -0.384936        -0.588878         1.044602
 H        -0.612742         0.593184        -0.128259
 H        -0.462202        -1.005388        -0.710430
 H         4.076802        -0.521768        -0.993121
 H         4.213903         1.168516         1.052154
 H         3.218731         1.786928        -0.412138
 H         1.761279         1.731418         2.746972
 H         3.376267        -0.490736         2.639671
 H         1.720949        -0.967734         2.323700
 H         2.348113        -2.236863         0.221607
