19
Iteration:  1558
 C        -0.134897         0.016780        -0.102932
 C         1.358917        -0.114738        -0.005472
 O         2.099083         0.139048        -1.247756
 C         3.299219        -0.179160        -0.500592
 C         3.515866         1.035201         0.499749
 C         2.171428         0.744255         1.195635
 O         1.420352         1.614029         1.992307
 C         2.526857        -0.606511         1.944823
 C         2.461477        -1.143216         0.524851
 H        -0.751854        -0.039462         0.873865
 H        -0.435871         0.975189        -0.672465
 H        -0.620649        -0.794356        -0.814426
 H         4.092885        -0.531615        -1.149506
 H         4.501535         0.971074         1.176427
 H         3.699731         1.882284        -0.230631
 H         0.530724         1.824633         1.544034
 H         3.376916        -0.730645         2.665683
 H         1.544930        -0.706527         2.374576
 H         2.375307        -2.158961         0.127608
