19
Iteration:  3614charge 0 multiplicity 1
 C        -0.096593        -0.398723         0.064168
 C         1.379590        -0.093157         0.133619
 O         1.967846         0.188926        -1.193576
 C         3.175085        -0.243931        -0.482632
 C         3.431502         1.121165         0.350890
 C         2.240727         0.764470         1.193141
 O         1.601571         1.873937         1.767061
 C         2.550872        -0.553998         1.930514
 C         2.427213        -1.127951         0.550243
 H        -0.622786        -0.567165         0.986909
 H        -0.534216         0.448164        -0.438609
 H        -0.098220        -1.134352        -0.821105
 H         3.930785        -0.573526        -1.145465
 H         4.278622         1.118095         1.063372
 H         3.384167         1.978159        -0.312584
 H         0.625649         1.621212         1.752179
 H         3.488393        -0.654359         2.519398
 H         1.706736        -0.849523         2.510306
 H         2.439216        -2.219484         0.305026
