19
Iteration:   960
 C        -0.173280        -0.397074        -0.238365
 C         1.285685        -0.117255        -0.085136
 O         2.111624         0.163704        -1.280731
 C         3.238747        -0.163290        -0.417379
 C         3.420968         0.986266         0.642180
 C         2.098606         0.774051         1.300397
 O         1.790428         2.053436         1.909238
 C         2.386955        -0.687390         1.907992
 C         2.352598        -1.114820         0.457810
 H        -0.450140        -0.561446         0.772133
 H        -0.633101         0.569206        -0.484823
 H        -0.405833        -1.213779        -0.933932
 H         4.256645        -0.494098        -0.976972
 H         4.311581         0.932348         1.331662
 H         3.385874         1.976397         0.138186
 H         1.482320         1.842806         2.828214
 H         3.345484        -0.798491         2.373687
 H         1.728353        -1.203494         2.596007
 H         2.232719        -2.098196        -0.043238
