19
Iteration:  1800
 C        -0.071389        -0.361069        -0.011743
 C         1.379213        -0.095231        -0.050754
 O         2.105807         0.399874        -1.187780
 C         3.199796        -0.155083        -0.452873
 C         3.550178         1.017691         0.541824
 C         2.186363         0.730369         1.291766
 O         1.554243         1.804509         1.814814
 C         2.288003        -0.699029         1.870168
 C         2.388369        -1.201309         0.428588
 H        -0.354273        -0.678184         1.005556
 H        -0.686493         0.606233        -0.261647
 H        -0.415448        -1.083033        -0.730722
 H         4.071523        -0.425262        -1.081619
 H         4.445326         0.973413         1.175828
 H         3.638378         1.949351        -0.106318
 H         2.074718         2.573487         1.983207
 H         3.092692        -0.930963         2.601336
 H         1.399820        -1.150053         2.412048
 H         2.132028        -2.155156         0.037069
