19
Iteration:  1362charge 0 multiplicity 1
 C        -0.029037        -0.170287         0.036674
 C         1.440992        -0.035065         0.041577
 O         2.176805         0.331311        -1.235553
 C         3.270947        -0.292021        -0.452420
 C         3.493412         1.008229         0.453362
 C         2.097245         0.722841         1.210314
 O         1.416532         1.762298         1.750314
 C         2.429495        -0.608858         1.984039
 C         2.366507        -1.210140         0.422096
 H        -0.442588        -0.091509         1.087307
 H        -0.659471         0.756491        -0.298968
 H        -0.436955        -1.137197        -0.363053
 H         4.021943        -0.664034        -1.162524
 H         4.338750         1.302022         1.090506
 H         3.242302         1.769875        -0.259646
 H         1.412669         1.545692         2.704474
 H         3.431433        -0.666477         2.557788
 H         1.608385        -1.234038         2.295472
 H         2.164917        -2.267987         0.228115
