19
Iteration:  4531charge 0 multiplicity 1
 C        -0.117711        -0.329120         0.130795
 C         1.402500        -0.122826         0.006847
 O         2.021277         0.048672        -1.198261
 C         3.289870        -0.216856        -0.515191
 C         3.418547         1.105775         0.355106
 C         2.056149         0.823333         1.119316
 O         1.535200         1.867472         1.846734
 C         2.581059        -0.524481         1.939132
 C         2.485553        -1.139300         0.536591
 H        -0.399163        -0.654895         1.170020
 H        -0.600702         0.629750        -0.074292
 H        -0.474054        -0.998705        -0.651217
 H         4.045815        -0.493425        -1.168413
 H         4.327477         1.164007         0.962036
 H         3.379249         1.976960        -0.267484
 H         0.558331         1.669456         2.018396
 H         3.515934        -0.228650         2.283422
 H         1.888879        -0.820487         2.661574
 H         2.471757        -2.280855         0.289213
