19
Iteration:    78
 C        -0.080469        -0.196081        -0.133412
 C         1.434228        -0.052766        -0.073648
 O         2.180158         0.139735        -1.303544
 C         3.284010        -0.264806        -0.398048
 C         3.444780         0.994582         0.479316
 C         2.107003         0.790124         1.206615
 O         1.625852         1.791063         1.975022
 C         2.329715        -0.511310         1.934086
 C         2.336801        -1.128365         0.518829
 H        -0.391349        -0.402279         0.906833
 H        -0.582130         0.738804        -0.362639
 H        -0.481965        -1.004181        -0.745795
 H         4.139795        -0.746958        -0.890906
 H         4.277315         0.870638         1.126486
 H         3.398142         1.859367        -0.185493
 H         0.694408         1.586367         2.078868
 H         3.139038        -0.542483         2.635542
 H         1.445323        -0.801216         2.460863
 H         2.210983        -2.242810         0.297354
