19
Iteration:  3590charge 0 multiplicity 1
 C        -0.133741        -0.203962         0.068971
 C         1.361383        -0.140427         0.044888
 O         2.026805         0.088105        -1.185646
 C         3.305717        -0.230709        -0.503341
 C         3.430283         1.048437         0.308523
 C         2.127473         0.701727         1.222872
 O         1.448866         1.917453         1.830702
 C         2.664288        -0.536993         1.938366
 C         2.439539        -1.184099         0.519508
 H        -0.461182        -0.391465         1.155064
 H        -0.542076         0.789060        -0.141926
 H        -0.496903        -0.951342        -0.674914
 H         4.131400        -0.406248        -1.149130
 H         4.344834         1.193846         0.900359
 H         3.376508         1.960390        -0.291902
 H         0.517191         1.676647         1.832257
 H         3.666208        -0.331238         2.272670
 H         2.035801        -1.032568         2.731240
 H         2.483305        -2.264576         0.319751
