19
Iteration:   845charge 0 multiplicity 1
 C        -0.108059        -0.172602        -0.062006
 C         1.401166        -0.156412         0.039048
 O         2.037983         0.204422        -1.244760
 C         3.324779        -0.229792        -0.492244
 C         3.528576         1.034937         0.421790
 C         2.138560         0.732622         1.234781
 O         1.590295         1.764659         1.938241
 C         2.333147        -0.523544         1.899904
 C         2.448579        -1.121992         0.480068
 H        -0.669461        -0.616553         0.847843
 H        -0.416068         0.876284        -0.263929
 H        -0.412995        -0.831435        -0.898920
 H         3.997748        -0.601511        -1.147338
 H         4.324809         0.901020         1.139073
 H         3.649186         2.033882        -0.011627
 H         0.622493         1.591593         2.115127
 H         3.181330        -0.723885         2.623722
 H         1.363718        -0.898201         2.349339
 H         2.519537        -2.211434         0.366307
