19
Iteration:  4379charge 0 multiplicity 1
 C        -0.152897        -0.277861         0.193309
 C         1.386264        -0.106124         0.159798
 O         2.003346        -0.027788        -1.253297
 C         3.275222        -0.201611        -0.480016
 C         3.434348         1.142464         0.367030
 C         2.135965         0.763050         1.144669
 O         1.381552         1.863638         1.723883
 C         2.610874        -0.532984         1.898322
 C         2.563282        -1.105120         0.455583
 H        -0.657510        -0.847154         1.012437
 H        -0.476515         0.695513         0.003011
 H        -0.406095        -0.773078        -0.751184
 H         4.046444        -0.545777        -1.095042
 H         4.249657         1.146022         1.149621
 H         3.218813         2.096217        -0.158866
 H         1.946622         2.030835         2.505477
 H         3.394035        -0.316686         2.604551
 H         1.894062        -1.020637         2.545169
 H         2.593926        -2.243890         0.252492
