19
Iteration:  1953charge 0 multiplicity 1
 C        -0.040594        -0.255710         0.020906
 C         1.400037        -0.113153        -0.022609
 O         2.104081         0.319241        -1.232120
 C         3.278497        -0.128132        -0.547566
 C         3.517716         1.035213         0.556753
 C         2.141073         0.687961         1.195853
 O         1.527796         1.782899         1.939661
 C         2.266994        -0.714546         1.935933
 C         2.439543        -1.156933         0.421499
 H        -0.465009        -0.067714         0.977446
 H        -0.528903         0.511759        -0.658740
 H        -0.424827        -1.203743        -0.298148
 H         4.056895        -0.519803        -1.238498
 H         4.214878         0.832416         1.352845
 H         3.601211         1.966839        -0.047414
 H         1.668838         2.643679         1.520480
 H         3.167147        -0.995625         2.519983
 H         1.242967        -1.105131         2.257533
 H         2.326414        -2.170313         0.041077
