19
Iteration:   423charge 0 multiplicity 1
 C        -0.069452        -0.150356        -0.134299
 C         1.447592         0.000482         0.023630
 O         2.108923         0.279116        -1.189863
 C         3.384506        -0.294984        -0.389991
 C         3.504777         0.989288         0.463670
 C         2.149387         0.710305         1.197364
 O         1.507604         1.762585         1.983996
 C         2.342914        -0.663802         1.901843
 C         2.270057        -1.171569         0.450282
 H        -0.530569        -0.462067         0.850238
 H        -0.455771         0.854454        -0.529497
 H        -0.221984        -0.986154        -0.866432
 H         4.196564        -0.604786        -1.049986
 H         4.410772         1.013941         1.101315
 H         3.523796         1.892894        -0.186614
 H         1.089254         2.343467         1.368783
 H         3.233334        -0.822635         2.577339
 H         1.423580        -1.019916         2.375375
 H         2.118358        -2.128001        -0.013261
