19
Iteration:  3245charge 0 multiplicity 1
 C        -0.026299        -0.166127         0.131249
 C         1.419533        -0.096434         0.009834
 O         2.095152         0.074225        -1.239671
 C         3.233799        -0.254598        -0.533021
 C         3.378203         1.141324         0.274390
 C         2.140989         0.720890         1.166683
 O         1.435354         1.716950         1.878641
 C         2.522272        -0.488977         2.039309
 C         2.488993        -1.199563         0.537670
 H        -0.300404        -0.485815         1.133100
 H        -0.519857         0.854332        -0.116059
 H        -0.585359        -0.853713        -0.586796
 H         4.097658        -0.565882        -1.132601
 H         4.263702         1.259482         0.952951
 H         3.038165         1.925207        -0.407770
 H         1.132689         2.493736         1.370123
 H         3.511121        -0.415470         2.567903
 H         1.672022        -0.697349         2.666057
 H         2.321232        -2.282526         0.289463
