19
Iteration:  1010charge 0 multiplicity 1
 C        -0.028196        -0.224124        -0.150307
 C         1.385329        -0.030534         0.050297
 O         2.045746         0.150534        -1.250205
 C         3.286883        -0.281092        -0.491029
 C         3.451321         1.050777         0.376634
 C         2.192626         0.763175         1.295424
 O         1.635127         1.861864         1.979010
 C         2.356633        -0.593979         1.941992
 C         2.312673        -1.137891         0.507606
 H        -0.525678        -0.855935         0.617975
 H        -0.441866         0.748549        -0.443054
 H         0.268604        -0.912244        -0.992674
 H         4.111128        -0.621116        -1.019964
 H         4.417270         0.855701         0.836606
 H         3.463663         1.998047        -0.168295
 H         0.686034         1.687337         2.225925
 H         3.048785        -0.836601         2.839056
 H         1.359827        -0.849758         2.349818
 H         2.242221        -2.180598         0.202963
