19
Iteration:  4950
 C        -0.033329        -0.360347         0.230450
 C         1.400075        -0.194103         0.063105
 O         1.963730         0.019176        -1.223114
 C         3.201490        -0.097514        -0.487445
 C         3.442450         1.105893         0.367001
 C         2.127667         0.790898         1.137094
 O         1.449216         1.907602         1.719646
 C         2.506138        -0.570982         1.891608
 C         2.517424        -1.102959         0.517601
 H        -0.361117        -0.483291         1.211137
 H        -0.286469         0.587180        -0.236530
 H        -0.519620        -1.100958        -0.455014
 H         4.089298        -0.192501        -1.137446
 H         4.271490         0.909075         0.991540
 H         3.279763         1.987384        -0.217096
 H         1.921371         2.067135         2.524202
 H         3.552481        -0.554356         2.396300
 H         1.748338        -1.061038         2.574235
 H         2.748765        -2.058749         0.234224
