19
Iteration:  2786charge 0 multiplicity 1
 C        -0.207844        -0.488695         0.003237
 C         1.359194        -0.157756         0.012371
 O         2.057252         0.092435        -1.290656
 C         3.280657        -0.142116        -0.529694
 C         3.463000         1.085912         0.370530
 C         2.126730         0.809723         1.185130
 O         1.727415         1.966188         2.047264
 C         2.400048        -0.536124         1.932527
 C         2.399551        -1.118060         0.488243
 H        -0.530339        -0.507789         1.108011
 H        -0.744438         0.278787        -0.512079
 H        -0.317441        -1.487014        -0.426653
 H         3.960363        -0.698132        -1.139556
 H         4.277980         0.803454         1.033855
 H         3.459193         1.982130        -0.220955
 H         0.954341         2.423820         1.661326
 H         3.367883        -0.613461         2.461313
 H         1.603085        -0.703284         2.690935
 H         2.571607        -2.065354         0.164359
