19
Iteration:  2744charge 0 multiplicity 1
 C        -0.068203        -0.172325         0.191342
 C         1.410766        -0.151623         0.146408
 O         2.035150         0.203586        -1.178188
 C         3.302120        -0.201611        -0.513683
 C         3.467413         1.061742         0.301484
 C         2.169392         0.738043         1.232205
 O         1.448509         1.871618         1.737781
 C         2.503949        -0.640819         1.924456
 C         2.448112        -1.221418         0.459774
 H        -0.803248        -0.138977         1.087280
 H        -0.264458         0.563108        -0.560091
 H        -0.312441        -1.076611        -0.339905
 H         4.103944        -0.582767        -1.168938
 H         4.342384         1.147420         0.963338
 H         3.290141         1.988017        -0.286418
 H         0.540623         1.617372         1.712426
 H         3.458718        -0.689123         2.417843
 H         1.708938        -0.924390         2.560376
 H         2.403656        -2.266786         0.229681
