19
Iteration:  4869charge 0 multiplicity 1
 C        -0.143913        -0.272538         0.026174
 C         1.383415        -0.189622         0.159870
 O         1.976624         0.024549        -1.243698
 C         3.261590        -0.193150        -0.559534
 C         3.321645         1.048399         0.262664
 C         2.076052         0.756850         1.193537
 O         1.571122         1.925447         1.926996
 C         2.604535        -0.541312         1.967921
 C         2.602441        -1.039827         0.541532
 H        -0.685544        -0.334905         1.017519
 H        -0.638991         0.552975        -0.497683
 H        -0.368858        -1.158892        -0.498122
 H         4.308263        -0.412777        -0.938329
 H         4.350441         0.967532         0.637315
 H         3.424079         2.019188        -0.151090
 H         0.659093         1.934244         1.557465
 H         3.469091        -0.530882         2.614865
 H         1.769096        -1.109924         2.411558
 H         2.687003        -2.170381         0.283803
