19
Iteration:  4372charge 0 multiplicity 1
 C        -0.156180        -0.320450         0.177910
 C         1.377340        -0.109139         0.077085
 O         1.985975         0.004005        -1.208400
 C         3.318349        -0.162058        -0.478566
 C         3.471024         1.079992         0.323909
 C         2.104874         0.772185         1.129707
 O         1.373470         1.842287         1.710452
 C         2.619202        -0.499987         1.943395
 C         2.545491        -1.093781         0.529834
 H        -0.745191        -0.706893         1.041253
 H        -0.606429         0.726659         0.169703
 H        -0.388184        -0.811223        -0.739855
 H         4.081442        -0.519069        -1.218008
 H         4.379358         1.139757         0.944585
 H         3.383885         2.084423         0.003717
 H         1.823788         2.064027         2.591152
 H         3.646577        -0.582279         2.477183
 H         1.878738        -1.121650         2.507740
 H         2.431278        -2.038774         0.212818
