19
Iteration:  1057charge 0 multiplicity 1
 C        -0.086392         0.057564         0.126955
 C         1.437166        -0.151803         0.028180
 O         2.128066         0.204873        -1.238250
 C         3.324972        -0.162731        -0.406975
 C         3.411434         0.928936         0.538150
 C         2.120437         0.695530         1.164445
 O         1.438846         1.806109         1.659026
 C         2.403796        -0.684724         1.874100
 C         2.466747        -1.225183         0.456111
 H        -0.378767         0.046308         1.168206
 H        -0.095548         1.147123        -0.118609
 H        -0.586489        -0.715159        -0.463688
 H         4.204847        -0.464504        -1.114970
 H         4.232410         0.874564         1.297671
 H         3.355970         1.886038        -0.024300
 H         0.774828         1.461014         2.323773
 H         3.367257        -0.807997         2.428998
 H         1.668679        -1.010945         2.621457
 H         2.455214        -2.303135         0.236062
