19
Iteration:  3456charge 0 multiplicity 1
 C        -0.111715        -0.337065         0.058742
 C         1.368666        -0.199839         0.024681
 O         2.050258         0.109185        -1.247995
 C         3.265592        -0.176840        -0.479405
 C         3.375428         1.121462         0.421999
 C         2.140797         0.794793         1.227992
 O         1.601765         1.869499         1.854396
 C         2.508637        -0.549981         1.946956
 C         2.420464        -1.197321         0.489167
 H        -0.488112        -0.496148         1.137953
 H        -0.657008         0.552909        -0.408334
 H        -0.481305        -1.147812        -0.566002
 H         4.202216        -0.296429        -1.110802
 H         4.250600         1.058718         1.072383
 H         3.280662         1.966332        -0.317990
 H         1.588905         2.703442         1.314497
 H         3.387178        -0.614367         2.608196
 H         1.668041        -0.873364         2.627186
 H         2.210455        -2.198932         0.133448
