19
Iteration:  3713
 C        -0.154726        -0.234023        -0.030472
 C         1.344056        -0.158240         0.101643
 O         1.925455         0.036989        -1.174755
 C         3.258056        -0.162153        -0.564314
 C         3.439249         1.081935         0.398011
 C         2.181635         0.798025         1.173619
 O         1.518837         1.820292         1.774995
 C         2.676550        -0.491830         1.999196
 C         2.487954        -1.146674         0.568330
 H        -0.567631        -0.325955         0.968902
 H        -0.391590         0.818784        -0.248293
 H        -0.595145        -0.881929        -0.939348
 H         4.018701        -0.566983        -1.303458
 H         4.313655         0.988450         1.038150
 H         3.261693         2.070259        -0.123597
 H         0.781526         1.261496         2.054321
 H         3.684240        -0.330709         2.491173
 H         1.989059        -0.928994         2.698060
 H         2.607886        -2.285503         0.478124
