19
Iteration:  3440
 C        -0.221084        -0.248462         0.048042
 C         1.332274        -0.114815        -0.059300
 O         2.047563         0.032794        -1.310978
 C         3.316549        -0.188193        -0.443793
 C         3.459190         1.033237         0.371819
 C         2.113759         0.766107         1.210724
 O         1.528494         1.870660         1.971178
 C         2.514737        -0.538425         1.914201
 C         2.530940        -1.099848         0.523009
 H        -0.384559        -0.439296         1.076095
 H        -0.713129         0.663885        -0.245642
 H        -0.675323        -1.219207        -0.345509
 H         3.998933        -0.792457        -0.985880
 H         4.358527         1.105045         1.004626
 H         3.338132         1.996389        -0.108483
 H         1.125051         2.373278         1.258012
 H         3.542308        -0.535239         2.394335
 H         1.796656        -0.970237         2.595304
 H         2.845495        -2.173397         0.488312
