19
Iteration:  1943
 C        -0.063176        -0.194970        -0.016146
 C         1.467287        -0.128704         0.059625
 O         2.133399         0.354918        -1.219292
 C         3.316628        -0.139707        -0.512803
 C         3.514239         1.022586         0.418988
 C         2.079211         0.674569         1.207777
 O         1.515450         1.762041         2.013791
 C         2.313592        -0.673079         1.868905
 C         2.376758        -1.260612         0.432740
 H        -0.456370        -0.000656         0.957965
 H        -0.393283         0.574777        -0.785552
 H        -0.327573        -1.200886        -0.366138
 H         4.032063        -0.610594        -1.215554
 H         4.375733         1.051932         1.088624
 H         3.415083         2.082870         0.076729
 H         1.337143         2.384202         1.320024
 H         2.992743        -0.614452         2.751406
 H         1.351917        -1.080541         2.386126
 H         2.247601        -2.278698         0.044303
