19
Iteration:  2512charge 0 multiplicity 1
 C        -0.143280        -0.275942        -0.105222
 C         1.409930        -0.085116         0.068712
 O         1.954971         0.164149        -1.230843
 C         3.248066        -0.209422        -0.444372
 C         3.348499         1.083164         0.347323
 C         2.185938         0.743318         1.180968
 O         1.668085         1.878062         1.914139
 C         2.498584        -0.573335         1.959319
 C         2.471868        -1.180163         0.548624
 H        -0.440810        -0.820670         0.781383
 H        -0.574664         0.688512        -0.301365
 H        -0.333297        -1.003313        -0.947174
 H         3.968096        -0.759935        -1.107186
 H         4.310493         1.241024         0.928171
 H         3.241264         1.922784        -0.381160
 H         1.223677         1.530330         2.729043
 H         3.426975        -0.557630         2.486721
 H         1.587606        -0.889672         2.469536
 H         2.395594        -2.269013         0.218008
