19
Iteration:  2024charge 0 multiplicity 1
 C        -0.118111        -0.100131        -0.093720
 C         1.402981        -0.071626         0.125122
 O         2.079625         0.138310        -1.213797
 C         3.309968        -0.226415        -0.531064
 C         3.495268         1.077868         0.465956
 C         2.195662         0.804121         1.181515
 O         1.446693         1.697093         1.880514
 C         2.420758        -0.647317         1.941799
 C         2.421669        -1.143236         0.465549
 H        -0.829065        -0.736797         0.588409
 H        -0.490007         0.942601         0.047621
 H        -0.381338        -0.484618        -1.167679
 H         4.069911        -0.446979        -1.293285
 H         4.372353         1.119009         1.187755
 H         3.455074         2.004347        -0.137680
 H         1.609918         1.520365         2.818969
 H         3.322104        -0.675217         2.571257
 H         1.550035        -0.968554         2.467129
 H         2.367549        -2.182133         0.058977
