19
Iteration:  3995charge 0 multiplicity 1
 C        -0.094597        -0.353500        -0.018083
 C         1.399651        -0.150218         0.055381
 O         1.988461        -0.009806        -1.274435
 C         3.256536        -0.215977        -0.480839
 C         3.393647         1.140020         0.335557
 C         2.111266         0.840412         1.162622
 O         1.530389         1.894429         1.962542
 C         2.474614        -0.533668         1.961629
 C         2.529123        -1.123625         0.529231
 H        -0.338165        -0.647722         0.969555
 H        -0.662334         0.513956         0.000211
 H        -0.285337        -1.118813        -0.808084
 H         4.240758        -0.496577        -0.912870
 H         4.286020         1.112306         0.939735
 H         3.292466         2.021838        -0.355829
 H         2.021928         2.678566         1.690098
 H         3.349289        -0.690745         2.613816
 H         1.547471        -0.736121         2.471436
 H         2.403579        -2.255660         0.308966
