19
Iteration:  1882
 C        -0.060060         0.050046        -0.197560
 C         1.349273        -0.146196        -0.030133
 O         2.083070         0.142492        -1.207928
 C         3.288728        -0.235562        -0.479349
 C         3.379205         1.053230         0.427115
 C         2.083023         0.742257         1.264114
 O         1.511613         1.700032         2.092463
 C         2.547243        -0.671847         1.910804
 C         2.492400        -1.180305         0.476427
 H        -0.664049        -0.280138         0.670474
 H        -0.276527         1.066425        -0.357692
 H        -0.532851        -0.491992        -1.061451
 H         4.100505        -0.699011        -1.030273
 H         4.168653         1.204074         1.185028
 H         3.211382         1.951634        -0.127163
 H         0.834432         2.097249         1.520748
 H         3.477750        -0.628859         2.461047
 H         1.697269        -1.002920         2.415335
 H         2.521313        -2.264620         0.197370
