19
Iteration:  4860charge 0 multiplicity 1
 C        -0.102471        -0.309937         0.054538
 C         1.388295        -0.202918         0.060338
 O         1.934632         0.025944        -1.192243
 C         3.243061        -0.156151        -0.487597
 C         3.362466         1.103043         0.292237
 C         2.176414         0.787408         1.147486
 O         1.565836         1.925239         1.882193
 C         2.541943        -0.536246         1.963071
 C         2.601902        -1.132514         0.517181
 H        -0.643936        -0.375662         1.045096
 H        -0.327460         0.668826        -0.302365
 H        -0.384059        -1.158562        -0.533248
 H         3.990521        -0.416545        -1.354026
 H         4.205624         0.990646         1.028620
 H         3.328363         1.999565        -0.252959
 H         0.588239         1.922921         1.902281
 H         3.463704        -0.506825         2.642297
 H         1.607187        -1.004587         2.417812
 H         2.634695        -2.190416         0.273339
