19
Iteration:  3733
 C        -0.157028        -0.143871         0.154244
 C         1.354275        -0.219733         0.111911
 O         2.038791         0.047606        -1.190129
 C         3.260237        -0.169095        -0.388389
 C         3.397983         1.093363         0.344389
 C         2.099181         0.745867         1.205307
 O         1.466132         1.890763         1.700507
 C         2.640295        -0.598772         1.887302
 C         2.595356        -1.188449         0.466597
 H        -0.720226        -0.232847         1.066094
 H        -0.596763         0.742944        -0.228131
 H        -0.443889        -0.780938        -0.742539
 H         4.029454        -0.333714        -1.127784
 H         4.249501         1.134736         1.000551
 H         3.320830         1.974845        -0.290669
 H         0.618879         1.745925         2.084958
 H         3.702125        -0.498714         2.260464
 H         1.879944        -0.892435         2.630504
 H         2.606248        -2.329354         0.274200
