19
Iteration:   809charge 0 multiplicity 1
 C        -0.081551        -0.433500        -0.113347
 C         1.341056        -0.020256        -0.026183
 O         2.157732         0.248089        -1.325827
 C         3.294384        -0.223254        -0.440783
 C         3.455988         0.987132         0.523072
 C         2.112404         0.767905         1.266830
 O         1.666929         1.933764         1.967651
 C         2.336006        -0.622587         1.871857
 C         2.235546        -1.082085         0.401440
 H        -0.322258        -0.803422         0.939925
 H        -0.780976         0.454160        -0.274742
 H        -0.213355        -1.229166        -0.875423
 H         4.162005        -0.903135        -0.774645
 H         4.385680         0.941878         1.166798
 H         3.362324         1.976871         0.053469
 H         1.958489         1.845643         2.927698
 H         3.351295        -0.725715         2.249592
 H         1.567654        -0.978499         2.642757
 H         2.015879        -2.173861         0.342361
