19
Iteration:  1719
 C        -0.084093         0.043692        -0.021753
 C         1.436856         0.010097         0.096802
 O         2.164428         0.104990        -1.249097
 C         3.273305        -0.220623        -0.461591
 C         3.425190         1.032348         0.383744
 C         2.163530         0.743795         1.198984
 O         1.335424         1.605503         1.921719
 C         2.466574        -0.594118         1.872631
 C         2.417391        -1.174222         0.482047
 H        -0.626865         0.029808         0.930264
 H        -0.250965         0.962230        -0.523299
 H        -0.317277        -0.827977        -0.734112
 H         4.238091        -0.499316        -0.820066
 H         4.451176         1.151554         0.828731
 H         3.142422         1.881281        -0.253620
 H         1.659296         1.539637         2.840724
 H         3.461572        -0.859183         2.408143
 H         1.521647        -0.868610         2.361091
 H         2.538356        -2.194720         0.061033
