19
Iteration:   735
 C        -0.159576         0.044604         0.031913
 C         1.415492        -0.063306        -0.011582
 O         2.241829         0.167350        -1.203991
 C         3.345292        -0.287561        -0.403928
 C         3.511055         1.009505         0.459402
 C         2.110664         0.737188         1.141336
 O         1.427047         1.659131         1.915450
 C         2.461364        -0.611677         1.816899
 C         2.341929        -1.169629         0.500725
 H        -0.675287        -0.096957         1.043222
 H        -0.430553         1.067683        -0.292068
 H        -0.620090        -0.770959        -0.509927
 H         4.065157        -0.639834        -1.005243
 H         4.344432         1.164760         1.112500
 H         3.341708         1.878340        -0.177229
 H         0.572936         1.910165         1.491124
 H         3.486018        -0.610970         2.235768
 H         1.670690        -1.004436         2.529600
 H         2.243778        -2.257337         0.246502
