19
Iteration:  3789
 C        -0.184431        -0.421791         0.120547
 C         1.319764        -0.168990         0.009695
 O         2.008911         0.067210        -1.211754
 C         3.321853        -0.236137        -0.484511
 C         3.534700         1.084831         0.386248
 C         2.113363         0.859354         1.165966
 O         1.547805         1.940118         1.836501
 C         2.504377        -0.438911         1.842921
 C         2.527868        -1.082194         0.483141
 H        -0.346885        -0.833128         1.077213
 H        -0.766148         0.449772        -0.067565
 H        -0.399359        -1.375943        -0.507105
 H         4.022355        -0.715034        -1.238725
 H         4.258780         0.967515         1.145201
 H         3.588539         2.023179        -0.227872
 H         0.934236         1.593640         2.554092
 H         3.309289        -0.616234         2.634608
 H         1.631650        -0.803184         2.388986
 H         2.220761        -2.170517         0.420021
