19
Iteration:  1924
 C        -0.110047        -0.075564        -0.137068
 C         1.402367        -0.036475         0.005873
 O         2.086922         0.218933        -1.195252
 C         3.284431        -0.253120        -0.432279
 C         3.441368         1.022507         0.471835
 C         2.209338         0.730984         1.209711
 O         1.489445         1.657190         2.032921
 C         2.446610        -0.631008         1.886268
 C         2.447756        -1.101266         0.446762
 H        -0.619740         0.038936         0.858677
 H        -0.456938         0.680791        -0.837898
 H        -0.462373        -1.090612        -0.574859
 H         4.106571        -0.540558        -1.107160
 H         4.298673         1.108286         1.163502
 H         3.397124         1.785244        -0.317535
 H         0.767987         2.064772         1.587180
 H         3.356080        -0.936813         2.371847
 H         1.572391        -1.034111         2.395319
 H         2.368255        -2.186934         0.128721
