19
Iteration:  4734charge 0 multiplicity 1
 C        -0.119134        -0.282019         0.062916
 C         1.384689        -0.150710        -0.000618
 O         1.995793         0.019234        -1.262382
 C         3.270353        -0.179702        -0.467031
 C         3.422116         1.142178         0.379236
 C         2.082184         0.770718         1.206024
 O         1.525472         1.788613         1.906024
 C         2.577020        -0.494359         1.932135
 C         2.472624        -1.109486         0.572442
 H        -0.407870        -0.385112         1.063578
 H        -0.533626         0.565046        -0.531579
 H        -0.443703        -1.040965        -0.685054
 H         4.025241        -0.622988        -1.115407
 H         4.375534         1.030342         0.905058
 H         3.432112         2.041647        -0.328408
 H         1.005576         2.400320         1.291220
 H         3.557510        -0.465034         2.329540
 H         2.003483        -0.882119         2.710575
 H         2.569373        -2.151677         0.319772
