19
Iteration:  1283charge 0 multiplicity 1
 C        -0.130488        -0.261316        -0.175036
 C         1.407272        -0.022785         0.029576
 O         2.116148         0.175421        -1.234391
 C         3.259990        -0.317022        -0.389009
 C         3.424060         1.107829         0.437261
 C         2.148805         0.762865         1.230194
 O         1.536558         1.824129         2.003561
 C         2.442746        -0.643652         1.907647
 C         2.339505        -1.172769         0.445152
 H        -0.556786        -0.745659         0.751213
 H        -0.753766         0.660998        -0.412601
 H        -0.078290        -1.055368        -1.007338
 H         3.989279        -0.712377        -1.012070
 H         4.239403         1.455636         1.126054
 H         3.360123         1.981147        -0.240858
 H         2.233146         2.506590         2.139549
 H         3.474727        -0.747417         2.368965
 H         1.650790        -0.831440         2.642473
 H         2.297542        -2.164430        -0.013543
