19
Iteration:  3308
 C        -0.041436        -0.442652         0.029492
 C         1.386189        -0.148658         0.010464
 O         1.991507         0.153329        -1.221584
 C         3.245869        -0.265445        -0.449928
 C         3.396000         1.052440         0.372489
 C         2.160227         0.825309         1.165244
 O         1.514829         1.891479         1.890897
 C         2.540822        -0.457308         1.961800
 C         2.358288        -1.118443         0.484228
 H        -0.347931        -0.755609         1.095495
 H        -0.639376         0.466085        -0.101995
 H        -0.320698        -1.182473        -0.783310
 H         4.036034        -0.690015        -1.140307
 H         4.345691         0.973928         0.954873
 H         3.452237         1.912267        -0.302669
 H         2.214010         2.534375         1.841428
 H         3.502986        -0.599872         2.430198
 H         1.739880        -0.741032         2.704476
 H         2.360812        -2.194132         0.180072
