19
Iteration:  3366
 C        -0.095751        -0.219520         0.129056
 C         1.404293        -0.216232         0.009184
 O         1.998616         0.057700        -1.223743
 C         3.282262        -0.190794        -0.446655
 C         3.391612         1.066555         0.493737
 C         2.024853         0.770405         1.128349
 O         1.498003         1.893792         1.857849
 C         2.558655        -0.515783         1.821657
 C         2.480889        -1.192155         0.494996
 H        -0.459792        -0.499812         1.077451
 H        -0.489695         0.741317        -0.304371
 H        -0.533897        -1.118878        -0.489798
 H         4.067972        -0.363942        -1.124825
 H         4.240247         0.951672         1.191873
 H         3.524208         1.985102        -0.118210
 H         1.873028         2.646699         1.293547
 H         3.604660        -0.482855         2.280194
 H         1.934398        -1.057621         2.492837
 H         2.726576        -2.278926         0.464726
