19
Iteration:  4515
 C        -0.127232        -0.342260         0.097243
 C         1.332446        -0.096557         0.113964
 O         2.074786         0.075246        -1.340738
 C         3.250839        -0.200276        -0.513740
 C         3.361264         0.997762         0.341626
 C         2.132925         0.752842         1.227247
 O         1.533504         1.894828         1.867193
 C         2.578736        -0.424756         1.920609
 C         2.535198        -1.095983         0.511763
 H        -0.330314        -0.503345         1.156744
 H        -0.901388         0.450825        -0.069517
 H        -0.302156        -1.339034        -0.349110
 H         4.164251        -0.647177        -1.103221
 H         4.232123         1.116331         1.035683
 H         3.350643         1.990104        -0.180621
 H         0.555487         1.924075         1.699595
 H         3.530594        -0.558571         2.553969
 H         1.817126        -1.132400         2.499635
 H         2.391847        -2.125155         0.414127
