19
Iteration:  3163
 C        -0.134501        -0.437695        -0.067666
 C         1.364759        -0.226511         0.085878
 O         1.954512         0.121246        -1.127079
 C         3.295577        -0.140589        -0.504500
 C         3.377883         1.111841         0.350033
 C         2.159993         0.781961         1.240307
 O         1.612341         1.987812         1.859534
 C         2.516872        -0.586210         1.910244
 C         2.428704        -1.182781         0.508696
 H        -0.612755        -0.410092         0.931332
 H        -0.679919         0.343773        -0.555340
 H        -0.394594        -1.364044        -0.545726
 H         4.155369        -0.401078        -1.102286
 H         4.259740         1.183739         0.959201
 H         3.294594         2.075837        -0.150348
 H         2.203414         2.746655         1.567168
 H         3.447217        -0.798082         2.427061
 H         1.679767        -0.910977         2.535933
 H         2.467193        -2.269870         0.414280
