19
Iteration:  2912
 C        -0.093968        -0.204946         0.275125
 C         1.406773        -0.166426         0.090368
 O         2.056707         0.034414        -1.205731
 C         3.348031        -0.104583        -0.550632
 C         3.443797         1.058426         0.367085
 C         2.103972         0.747293         1.076228
 O         1.366596         1.858391         1.707556
 C         2.491094        -0.607503         1.897133
 C         2.499540        -1.143998         0.514318
 H        -0.246275        -0.262182         1.301808
 H        -0.291812         0.847911        -0.041641
 H        -0.680885        -0.968100        -0.281028
 H         4.207305        -0.382485        -1.193301
 H         4.274654         0.935927         1.038568
 H         3.543753         2.081089         0.006380
 H         1.801967         2.274558         2.425868
 H         3.356427        -0.714262         2.512833
 H         1.612297        -0.991228         2.348548
 H         2.257724        -2.269992         0.276834
