19
Iteration:   457charge 0 multiplicity 1
 C        -0.066983        -0.271344        -0.222761
 C         1.353915        -0.061447        -0.065874
 O         2.035052         0.346014        -1.247052
 C         3.314998        -0.229172        -0.468186
 C         3.561323         0.873151         0.604873
 C         2.156477         0.786118         1.187793
 O         1.585046         1.802025         2.013352
 C         2.385893        -0.597809         1.919114
 C         2.313902        -1.171997         0.523486
 H        -0.510311        -0.723944         0.739516
 H        -0.759264         0.667372        -0.404575
 H        -0.266195        -0.956712        -1.109898
 H         4.040924        -0.588152        -1.244058
 H         4.279262         0.383087         1.324660
 H         3.949132         1.893305         0.325877
 H         1.173692         2.439695         1.431587
 H         3.278639        -0.534948         2.655596
 H         1.468967        -0.919047         2.473550
 H         2.198005        -2.172716         0.282610
