19
Iteration:  1976charge 0 multiplicity 1
 C        -0.146132        -0.283566         0.038741
 C         1.361275        -0.044405         0.031529
 O         2.086820         0.244102        -1.287487
 C         3.327595        -0.086369        -0.428920
 C         3.543025         0.957980         0.651513
 C         2.106502         0.654521         1.237285
 O         1.501241         1.887700         1.863562
 C         2.398181        -0.667974         1.793444
 C         2.408367        -1.166462         0.348400
 H        -0.581956        -0.441077         1.002410
 H        -0.822713         0.432589        -0.475537
 H        -0.282104        -1.253340        -0.485822
 H         4.156888        -0.528605        -1.004153
 H         4.266243         0.570167         1.327597
 H         3.643225         2.001398         0.279953
 H         2.222202         2.493112         2.098747
 H         3.272300        -0.607999         2.466722
 H         1.450697        -1.222515         2.157002
 H         2.283419        -2.129711        -0.178857
