19
Iteration:  2845
 C        -0.172979        -0.311124        -0.046833
 C         1.347483        -0.118274         0.053002
 O         1.934237         0.030657        -1.195425
 C         3.272619        -0.231635        -0.457010
 C         3.454105         1.035936         0.389882
 C         2.171152         0.816737         1.230720
 O         1.452794         1.858098         1.867964
 C         2.650142        -0.474806         1.841464
 C         2.489927        -1.113033         0.552404
 H        -0.592036        -0.809340         0.794923
 H        -0.731374         0.662750        -0.095461
 H        -0.488218        -0.900998        -0.916245
 H         4.051289        -0.555631        -1.206029
 H         4.345283         1.036627         1.014442
 H         3.626199         1.988912        -0.124217
 H         2.160069         2.452812         2.273378
 H         3.604468        -0.516056         2.340213
 H         1.827372        -0.767734         2.427517
 H         2.450439        -2.280126         0.439570
