19
Iteration:  2032charge 0 multiplicity 1
 C        -0.111985        -0.053870        -0.117787
 C         1.377103        -0.098592         0.023784
 O         2.083542         0.063103        -1.204510
 C         3.308197        -0.136901        -0.521324
 C         3.454593         1.034980         0.439805
 C         2.188019         0.764603         1.175685
 O         1.418064         1.724765         1.936503
 C         2.480450        -0.611769         1.883887
 C         2.443099        -1.127037         0.543189
 H        -0.631122        -0.627577         0.647482
 H        -0.412012         0.892649         0.211424
 H        -0.544495        -0.264229        -1.113754
 H         4.160625        -0.394906        -1.160328
 H         4.286976         0.885085         1.108593
 H         3.663751         1.958241        -0.056181
 H         1.499640         1.524890         2.865680
 H         3.353253        -0.831273         2.512799
 H         1.595691        -1.035681         2.415418
 H         2.332050        -2.191864         0.198450
