19
Iteration:  4338
 C        -0.049485        -0.372043         0.175868
 C         1.440431        -0.096080         0.128722
 O         1.956111         0.176579        -1.198240
 C         3.282149        -0.272017        -0.494556
 C         3.441046         1.079939         0.336478
 C         2.108235         0.799975         1.115205
 O         1.408944         1.823583         1.721476
 C         2.533373        -0.458845         1.927101
 C         2.533752        -1.157273         0.541349
 H        -0.466836        -0.888058         1.132916
 H        -0.575301         0.528826        -0.232884
 H        -0.225530        -1.031328        -0.647588
 H         4.005133        -0.696316        -1.180510
 H         4.407093         1.084077         0.909179
 H         3.202026         1.862041        -0.326535
 H         1.858560         2.167861         2.548836
 H         3.531177        -0.552891         2.472945
 H         1.630818        -0.891589         2.414827
 H         2.317032        -2.084793         0.242381
