19
Iteration:  1080
 C        -0.063467        -0.008548        -0.031586
 C         1.472804        -0.064688         0.095960
 O         2.047541         0.171588        -1.165272
 C         3.327581        -0.239163        -0.505586
 C         3.581428         0.997988         0.401766
 C         2.233302         0.722065         1.250671
 O         1.345744         1.831439         1.750923
 C         2.374252        -0.686984         1.966688
 C         2.429080        -1.163681         0.423148
 H        -0.478118        -0.275485         0.944405
 H        -0.465510         0.996963        -0.257854
 H        -0.252832        -0.844704        -0.670719
 H         4.077817        -0.922659        -1.125175
 H         4.442556         0.913733         1.102811
 H         3.371410         2.025060         0.059652
 H         1.070750         1.504087         2.636130
 H         2.966472        -0.963175         2.805390
 H         1.386436        -1.142407         2.216455
 H         2.336839        -2.236284         0.170162
