19
Iteration:  1511charge 0 multiplicity 1
 C        -0.125381        -0.216828         0.023819
 C         1.375119        -0.088817         0.048517
 O         2.156370         0.293158        -1.242177
 C         3.340192        -0.220207        -0.440800
 C         3.452502         1.075731         0.509960
 C         2.184793         0.676259         1.278906
 O         1.558600         1.761462         1.861065
 C         2.322562        -0.690849         1.891267
 C         2.409358        -1.145184         0.380079
 H        -0.580843        -0.206589         1.026201
 H        -0.564772         0.631097        -0.534403
 H        -0.577539        -1.137691        -0.524474
 H         4.191965        -0.476465        -1.060843
 H         4.310766         1.309528         1.210271
 H         3.135203         2.036515         0.108653
 H         1.249089         2.308966         1.130002
 H         3.204015        -0.912072         2.525934
 H         1.388153        -1.112980         2.318660
 H         2.310363        -2.215537         0.073039
