19
Iteration:  2623
 C        -0.180704        -0.433773        -0.025265
 C         1.359139        -0.199557         0.026504
 O         1.958876         0.109909        -1.250551
 C         3.230661        -0.122844        -0.547420
 C         3.460469         1.045382         0.493808
 C         2.060513         0.760202         1.216730
 O         1.799228         2.031067         1.867924
 C         2.495284        -0.581418         1.995623
 C         2.465713        -1.098709         0.499779
 H        -0.766029        -0.876930         0.849004
 H        -0.660633         0.441484        -0.311241
 H        -0.393718        -1.105604        -0.844471
 H         3.954198        -0.322189        -1.355052
 H         4.197110         0.604450         1.188183
 H         3.634970         1.993393        -0.023529
 H         0.827875         1.987599         2.012160
 H         3.318110        -0.585950         2.674582
 H         1.631892        -0.989773         2.445818
 H         2.449077        -2.044328         0.042814
