19
Iteration:  1621charge 0 multiplicity 1
 C        -0.193594        -0.271099        -0.100559
 C         1.387694        -0.063128        -0.014650
 O         2.073303         0.175028        -1.234822
 C         3.292990        -0.167538        -0.458771
 C         3.581097         0.938089         0.547600
 C         2.083052         0.738078         1.197084
 O         1.539117         1.732688         1.975938
 C         2.328604        -0.543333         1.875262
 C         2.453597        -1.023283         0.449002
 H        -0.342137        -0.931921         0.732445
 H        -0.794966         0.567715        -0.263344
 H        -0.198290        -0.796560        -1.106928
 H         3.955418        -0.468110        -1.210601
 H         4.425773         0.970077         1.257807
 H         3.580499         1.894127         0.107283
 H         2.261441         2.424537         2.029320
 H         3.239516        -0.678963         2.536095
 H         1.413579        -0.912404         2.351145
 H         2.459680        -2.105743         0.244501
