19
Iteration:  1756charge 0 multiplicity 1
 C        -0.118763        -0.067504        -0.152524
 C         1.357749        -0.114183         0.017980
 O         2.127881         0.166264        -1.291278
 C         3.276786        -0.190307        -0.423205
 C         3.392657         0.954722         0.511390
 C         2.101719         0.739633         1.209880
 O         1.433955         1.763274         2.000329
 C         2.539591        -0.623531         1.865664
 C         2.429856        -1.176442         0.456467
 H        -0.659281        -0.137435         0.812544
 H        -0.435565         0.931525        -0.600961
 H        -0.571056        -0.752312        -0.822671
 H         4.117323        -0.524376        -1.056503
 H         4.326072         0.942187         1.080446
 H         3.404565         1.932076        -0.008492
 H         2.127013         1.988396         2.606178
 H         3.524186        -0.523861         2.347900
 H         1.894257        -0.986674         2.687335
 H         2.525959        -2.235576         0.251936
