19
Iteration:  2316charge 0 multiplicity 1
 C        -0.219202        -0.409855        -0.102685
 C         1.372762        -0.033696         0.055053
 O         2.027169         0.269902        -1.133934
 C         3.251277        -0.183830        -0.522285
 C         3.555817         1.017617         0.487753
 C         2.183332         0.774670         1.213849
 O         1.707383         1.911668         1.912283
 C         2.419825        -0.602571         1.861945
 C         2.376493        -1.155223         0.460350
 H        -0.677648        -0.763074         0.784126
 H        -0.708249         0.404812        -0.590131
 H        -0.085501        -1.156851        -0.913477
 H         3.830775        -0.778030        -1.258824
 H         4.319721         0.715941         1.158945
 H         3.512340         2.009565         0.112527
 H         0.726722         1.701444         2.038363
 H         3.192950        -0.877625         2.554017
 H         1.586071        -0.989373         2.452583
 H         2.282895        -2.259804         0.236998
