19
Iteration:   358
 C         0.000197        -0.002665        -0.088863
 C         1.428887        -0.067812         0.037525
 O         2.141521         0.214920        -1.187484
 C         3.247777        -0.224383        -0.430389
 C         3.465827         0.979684         0.465940
 C         2.187815         0.719833         1.256937
 O         1.342427         1.661418         1.832704
 C         2.438762        -0.575333         1.921783
 C         2.358765        -1.212969         0.417545
 H        -0.605331        -0.106259         0.865919
 H        -0.263935         1.001517        -0.628612
 H        -0.375639        -0.705248        -0.896806
 H         4.119098        -0.627022        -0.938878
 H         4.436830         0.868981         0.990678
 H         3.372100         1.886015        -0.182394
 H         1.844894         1.990059         2.629467
 H         3.347985        -0.837945         2.573500
 H         1.562799        -0.872181         2.542162
 H         2.282249        -2.239212         0.225943
