19
Iteration:  4947charge 0 multiplicity 1
 C        -0.014067        -0.357059         0.203320
 C         1.419226        -0.179632         0.073325
 O         1.955576         0.005402        -1.245167
 C         3.199420        -0.103907        -0.485488
 C         3.407133         1.088586         0.353360
 C         2.149644         0.783848         1.161358
 O         1.433465         1.910691         1.738428
 C         2.507306        -0.552632         1.896773
 C         2.522540        -1.100694         0.504112
 H        -0.343898        -0.440428         1.284163
 H        -0.366445         0.545224        -0.258533
 H        -0.525797        -1.062566        -0.407079
 H         4.085742        -0.240433        -1.251125
 H         4.283468         0.954150         1.083040
 H         3.376926         2.037495        -0.143919
 H         1.989430         2.153377         2.564123
 H         3.496342        -0.539230         2.400759
 H         1.754912        -1.072852         2.517642
 H         2.724104        -2.156115         0.299221
