19
Iteration:  4365charge 0 multiplicity 1
 C        -0.135831        -0.310595         0.133065
 C         1.380290        -0.173246         0.060579
 O         1.977937         0.063810        -1.183310
 C         3.313334        -0.142751        -0.528121
 C         3.469790         1.053466         0.330506
 C         2.118791         0.810785         1.169622
 O         1.378011         1.816958         1.701350
 C         2.613933        -0.498335         1.972674
 C         2.523537        -1.080860         0.583679
 H        -0.384226        -0.797834         1.084833
 H        -0.704291         0.687979         0.178408
 H        -0.561605        -0.950260        -0.730008
 H         4.136350        -0.484300        -1.222552
 H         4.415826         0.958846         0.862507
 H         3.532920         2.040382        -0.316852
 H         1.653850         2.128000         2.601721
 H         3.644858        -0.611831         2.250201
 H         1.801602        -0.948065         2.563386
 H         2.360867        -2.236299         0.241646
