19
Iteration:  1433
 C        -0.138479        -0.161584        -0.117892
 C         1.383321        -0.102287         0.048524
 O         2.132012         0.201867        -1.146955
 C         3.279443        -0.239063        -0.413905
 C         3.456886         1.121921         0.430841
 C         2.172591         0.736564         1.184348
 O         1.488966         1.746696         1.889598
 C         2.471933        -0.641820         1.885866
 C         2.395940        -1.206861         0.453864
 H        -0.731033        -0.683863         0.652276
 H        -0.552606         0.886549        -0.217347
 H        -0.415240        -0.618569        -1.152691
 H         4.147135        -0.617342        -1.066012
 H         4.408821         1.429043         0.913101
 H         3.145667         1.900691        -0.291728
 H         1.903247         1.932132         2.782141
 H         3.325458        -0.574638         2.544137
 H         1.523003        -0.872064         2.479029
 H         2.059288        -2.265046         0.288468
