19
Iteration:  1106
 C        -0.133066        -0.191101        -0.155848
 C         1.379422        -0.087575        -0.042674
 O         2.147675         0.193019        -1.227492
 C         3.259954        -0.251438        -0.403100
 C         3.462855         0.980421         0.505825
 C         2.075423         0.748681         1.178444
 O         1.601595         1.816892         1.916786
 C         2.421863        -0.496071         1.914937
 C         2.334124        -1.173177         0.453085
 H        -0.436476        -0.617071         0.871042
 H        -0.494496         0.831523        -0.365692
 H        -0.397158        -0.939052        -0.933049
 H         4.101255        -0.692329        -0.924323
 H         4.193939         0.824278         1.289947
 H         3.518277         1.942668        -0.031486
 H         1.747375         1.634063         2.861744
 H         3.372196        -0.412123         2.482118
 H         1.636425        -1.058293         2.455446
 H         2.170124        -2.243112         0.322443
