19
Iteration:  3266charge 0 multiplicity 1
 C        -0.047446        -0.176881         0.045176
 C         1.378212        -0.302769         0.112039
 O         1.918018         0.060120        -1.160825
 C         3.312629        -0.147484        -0.446277
 C         3.406746         1.105871         0.303502
 C         2.149414         0.770402         1.247353
 O         1.483545         1.840781         1.822778
 C         2.537435        -0.552864         1.875190
 C         2.544976        -1.157990         0.513783
 H        -0.733696        -0.504164         0.820489
 H        -0.475988         0.769743        -0.237220
 H        -0.445147        -0.809471        -0.815477
 H         4.132066        -0.549128        -1.067675
 H         4.226166         1.248219         1.042937
 H         3.137385         1.905489        -0.379233
 H         1.667475         2.678489         1.421878
 H         3.380162        -0.652305         2.580130
 H         1.614076        -0.931257         2.341789
 H         2.691955        -2.256513         0.370168
