19
Iteration:   861charge 0 multiplicity 1
 C        -0.103404        -0.042356        -0.056720
 C         1.403452        -0.178129         0.002571
 O         2.084755         0.209758        -1.148543
 C         3.254532        -0.132094        -0.465885
 C         3.388454         1.038204         0.456301
 C         2.140574         0.694747         1.162236
 O         1.549819         1.793028         1.829170
 C         2.485413        -0.707426         1.990370
 C         2.481828        -1.245569         0.509704
 H        -0.481634        -0.255460         0.895173
 H        -0.300683         1.014342        -0.234747
 H        -0.576704        -0.518478        -0.911482
 H         4.168340        -0.468553        -1.135032
 H         4.317522         1.120144         1.070550
 H         3.184394         1.895292        -0.202576
 H         0.602877         1.815151         1.487185
 H         3.305291        -0.693785         2.681620
 H         1.619877        -1.011576         2.552287
 H         2.410521        -2.293631         0.200276
