19
Iteration:  4491charge 0 multiplicity 1
 C        -0.042675        -0.417444         0.102659
 C         1.390304        -0.184528         0.047370
 O         1.967007         0.077819        -1.149121
 C         3.261883        -0.135510        -0.477234
 C         3.469046         1.159693         0.320718
 C         2.176341         0.773299         1.140786
 O         1.552639         1.937184         1.862319
 C         2.451680        -0.549415         1.909360
 C         2.465388        -1.171330         0.498391
 H        -0.527537        -0.303832         1.151864
 H        -0.585326         0.357096        -0.427765
 H        -0.202951        -1.386637        -0.309386
 H         3.958972        -0.517655        -1.260460
 H         4.408051         1.317773         1.018590
 H         3.399626         2.062240        -0.279584
 H         0.715936         2.137094         1.478685
 H         3.458279        -0.693989         2.369084
 H         1.677275        -0.968747         2.593715
 H         2.328514        -2.158505         0.225093
