19
Iteration:   578charge 0 multiplicity 1
 C        -0.032990        -0.034104        -0.067911
 C         1.445806        -0.031648        -0.016214
 O         2.079160         0.166789        -1.205597
 C         3.266874        -0.176581        -0.417337
 C         3.376546         1.020418         0.533318
 C         2.124098         0.658263         1.197235
 O         1.577918         1.844849         1.876665
 C         2.412607        -0.742779         1.914371
 C         2.434244        -1.237197         0.426967
 H        -0.692608         0.003708         0.838283
 H        -0.546708         0.915114        -0.469087
 H        -0.320946        -0.899076        -0.734079
 H         4.232958        -0.574217        -0.902628
 H         4.333925         1.063460         1.131307
 H         3.287769         1.917383        -0.114429
 H         0.602334         1.662447         2.094035
 H         3.342633        -0.632702         2.544492
 H         1.517108        -1.110753         2.462472
 H         2.418107        -2.227966         0.040038
