19
Iteration:  2883
 C        -0.048256        -0.105635         0.258789
 C         1.427265        -0.106473         0.026048
 O         2.008113         0.149086        -1.203523
 C         3.348521        -0.228779        -0.520001
 C         3.403376         1.037518         0.322308
 C         2.207439         0.719453         1.165995
 O         1.331705         1.749058         1.617980
 C         2.506916        -0.569294         1.937483
 C         2.510682        -1.162435         0.544170
 H         0.092855        -0.533407         1.332411
 H        -0.373761         0.906254         0.302848
 H        -0.650075        -0.776397        -0.362771
 H         4.173008        -0.584912        -1.087618
 H         4.356608         1.220002         0.950370
 H         2.977015         1.928041        -0.215232
 H         1.315892         2.171008         2.509169
 H         3.342075        -0.833718         2.643094
 H         1.490410        -0.903347         2.443210
 H         2.569004        -2.199634         0.489643
