19
Iteration:  4370charge 0 multiplicity 1
 C        -0.154136        -0.315252         0.162147
 C         1.375709        -0.125539         0.061612
 O         1.981943         0.019412        -1.197007
 C         3.328169        -0.153485        -0.494253
 C         3.470038         1.068183         0.319124
 C         2.101865         0.783507         1.137592
 O         1.376002         1.834133         1.709180
 C         2.620169        -0.497381         1.958326
 C         2.540937        -1.090552         0.553218
 H        -0.694120        -0.707491         1.074407
 H        -0.613024         0.634221         0.204628
 H        -0.414601        -0.833525        -0.714560
 H         4.057476        -0.488366        -1.189941
 H         4.434277         1.104236         0.914144
 H         3.443515         2.049602        -0.041401
 H         1.756429         2.079382         2.572625
 H         3.656310        -0.620300         2.380933
 H         1.862735        -1.084589         2.488891
 H         2.388454        -2.045717         0.205525
