19
Iteration:  4835
 C        -0.113762        -0.360689         0.158633
 C         1.374326        -0.144583         0.053938
 O         2.040801         0.124909        -1.232900
 C         3.276236        -0.184390        -0.480600
 C         3.393221         1.125762         0.363859
 C         2.206937         0.756760         1.128721
 O         1.527049         1.869232         1.736150
 C         2.538885        -0.505760         1.936738
 C         2.414773        -1.137927         0.525984
 H        -0.377636        -0.761434         1.146632
 H        -0.644410         0.583188         0.053398
 H        -0.340887        -1.164157        -0.526085
 H         4.111672        -0.478811        -1.079130
 H         4.304516         1.160623         0.934715
 H         3.119653         2.009821        -0.224536
 H         1.060703         1.648500         2.523987
 H         3.493370        -0.491139         2.390178
 H         1.758906        -0.926165         2.556538
 H         2.349186        -2.291103         0.386246
