19
Iteration:  2497
 C        -0.157345        -0.437077        -0.062478
 C         1.273687        -0.121014         0.008907
 O         2.057680         0.114439        -1.220889
 C         3.233711        -0.223430        -0.490988
 C         3.514569         1.050892         0.385676
 C         2.138838         0.837662         1.233559
 O         1.704113         1.889364         1.959542
 C         2.513024        -0.510340         1.895234
 C         2.327487        -1.044213         0.459019
 H        -0.610597        -0.983889         0.769422
 H        -0.778023         0.543142        -0.004421
 H        -0.368854        -0.882126        -1.038107
 H         4.088112        -0.430386        -1.081088
 H         4.381872         1.059571         1.024145
 H         3.507798         2.002318        -0.129716
 H         1.025131         1.562472         2.532360
 H         3.484484        -0.701396         2.424942
 H         1.799358        -0.942567         2.620446
 H         2.166303        -2.130609         0.385746
