19
Iteration:  4952charge 0 multiplicity 1
 C        -0.050755        -0.362363         0.239357
 C         1.386684        -0.207792         0.059191
 O         1.969232         0.032968        -1.208161
 C         3.214351        -0.095109        -0.495122
 C         3.456151         1.114882         0.379019
 C         2.109378         0.798082         1.124305
 O         1.460261         1.901922         1.703459
 C         2.512606        -0.580675         1.895441
 C         2.517266        -1.101219         0.525028
 H        -0.397832        -0.509032         1.224305
 H        -0.292758         0.660852        -0.203367
 H        -0.489148        -1.140219        -0.471878
 H         4.070772        -0.211722        -1.053630
 H         4.317795         0.907078         0.939622
 H         3.239244         2.008634        -0.283713
 H         1.882577         2.020717         2.532862
 H         3.524273        -0.565837         2.383086
 H         1.766428        -1.019222         2.584202
 H         2.753768        -2.119614         0.160689
