19
Iteration:  2996charge 0 multiplicity 1
 C        -0.177097        -0.435588        -0.072475
 C         1.247423        -0.200894        -0.076394
 O         2.064856        -0.030074        -1.276444
 C         3.255453        -0.125756        -0.502109
 C         3.342788         1.080604         0.369493
 C         2.118366         0.819999         1.211104
 O         1.795709         1.950197         2.087829
 C         2.443234        -0.429140         1.985306
 C         2.474371        -1.108733         0.511882
 H        -0.608346        -0.512283         0.900962
 H        -0.812196         0.364344        -0.575814
 H        -0.397101        -1.369355        -0.643315
 H         4.003535        -0.602904        -1.196170
 H         4.191104         0.895552         1.077444
 H         3.403920         2.098260        -0.052389
 H         1.303308         2.524968         1.415254
 H         3.503086        -0.429034         2.468202
 H         1.676256        -0.879202         2.625017
 H         2.525675        -2.237645         0.355337
