19
Iteration:   543charge 0 multiplicity 1
 C        -0.189634         0.078305        -0.079135
 C         1.389630        -0.040198        -0.029742
 O         2.092673         0.237565        -1.182651
 C         3.291235        -0.256371        -0.381746
 C         3.637724         0.903502         0.426348
 C         2.159132         0.763844         1.196337
 O         1.302478         1.687256         1.817488
 C         2.518161        -0.656209         1.945542
 C         2.450290        -1.211629         0.480997
 H        -0.629942        -0.124738         0.888418
 H        -0.316571         1.013502        -0.568661
 H        -0.499813        -0.663985        -0.785153
 H         3.992293        -0.610371        -1.197857
 H         4.427740         0.751741         1.165514
 H         3.675653         1.887923        -0.069833
 H         1.144117         1.363599         2.771001
 H         3.383527        -0.392900         2.544850
 H         1.800964        -1.000462         2.645941
 H         2.621276        -2.216779         0.212250
