19
Iteration:  1072
 C         0.000589         0.037178         0.048282
 C         1.465626        -0.060346         0.071456
 O         2.080263         0.171676        -1.171713
 C         3.289116        -0.258902        -0.522694
 C         3.549182         1.021214         0.462333
 C         2.160625         0.659096         1.266091
 O         1.358330         1.800492         1.678166
 C         2.393157        -0.699584         1.970694
 C         2.463544        -1.179626         0.423767
 H        -0.544641        -0.027038         1.007484
 H        -0.530965         0.955363        -0.200028
 H        -0.529222        -0.663000        -0.571224
 H         4.153031        -0.637385        -1.144771
 H         4.473217         1.017269         1.051009
 H         3.495281         2.022879        -0.032656
 H         0.833768         1.640720         2.511505
 H         3.038828        -0.806533         2.819400
 H         1.464165        -1.287257         2.188134
 H         2.278058        -2.217714         0.093120
