19
Iteration:  3975
 C        -0.068061        -0.372730         0.078559
 C         1.371055        -0.110921         0.043043
 O         2.096235         0.080998        -1.206694
 C         3.261507        -0.248580        -0.479946
 C         3.363508         1.093199         0.293407
 C         2.114707         0.787441         1.183259
 O         1.528453         1.784900         1.864307
 C         2.464008        -0.411669         1.905748
 C         2.443085        -1.101062         0.572173
 H        -0.601143        -0.876476         0.865272
 H        -0.641508         0.540476        -0.078175
 H        -0.045257        -1.023247        -0.928668
 H         4.070692        -0.591568        -1.176162
 H         4.263403         1.361769         0.789635
 H         2.991897         1.842437        -0.445488
 H         2.225902         2.427871         2.218260
 H         3.413857        -0.505238         2.594578
 H         1.707988        -0.729961         2.634966
 H         2.224889        -2.151886         0.322171
