19
Iteration:   374charge 0 multiplicity 1
 C        -0.075336         0.094248        -0.101619
 C         1.389662        -0.065734         0.021045
 O         2.068328         0.041530        -1.291808
 C         3.357045        -0.219094        -0.460603
 C         3.498333         1.025771         0.545713
 C         2.126950         0.746006         1.214894
 O         1.334058         1.715382         1.945061
 C         2.390083        -0.712491         1.861389
 C         2.533320        -1.158570         0.487144
 H        -0.478373         0.001814         0.880152
 H        -0.219021         1.073820        -0.433983
 H        -0.465352        -0.712770        -0.678002
 H         4.121083        -0.519949        -1.215391
 H         4.300779         0.936156         1.297385
 H         3.647758         1.974768         0.042504
 H         1.917857         2.418116         2.359873
 H         3.217721        -0.676585         2.535048
 H         1.466826        -1.106431         2.300031
 H         2.409818        -2.252037         0.114980
