19
Iteration:  3396charge 0 multiplicity 1
 C        -0.090988        -0.145869         0.021969
 C         1.435639        -0.129955         0.070642
 O         2.002763         0.109374        -1.216063
 C         3.209851        -0.237935        -0.481077
 C         3.472362         1.132854         0.288830
 C         2.196790         0.752593         1.238523
 O         1.440431         1.695032         1.836861
 C         2.565229        -0.534707         1.999996
 C         2.428639        -1.138094         0.601246
 H        -0.537050        -0.375887         1.006794
 H        -0.436966         0.800933        -0.373569
 H        -0.374941        -1.067903        -0.606647
 H         4.024743        -0.498780        -1.162696
 H         4.508245         1.426250         0.550619
 H         3.250016         1.890698        -0.458415
 H         1.071207         2.271036         1.168343
 H         3.531626        -0.572968         2.530007
 H         1.790776        -1.100404         2.551035
 H         2.473922        -2.255913         0.460753
