19
Iteration:  2066charge 0 multiplicity 1
 C        -0.137629        -0.022626        -0.024881
 C         1.423958        -0.109328         0.009991
 O         2.163325         0.103324        -1.246779
 C         3.331387        -0.213455        -0.475795
 C         3.338102         1.075024         0.437446
 C         2.096528         0.706989         1.189546
 O         1.492380         1.784466         1.912319
 C         2.512948        -0.646333         1.900467
 C         2.446698        -1.168672         0.479305
 H        -0.587692        -0.651409         0.736967
 H        -0.224811         0.965059         0.205635
 H        -0.594857        -0.109292        -1.041527
 H         4.239287        -0.510735        -1.009462
 H         4.082660         1.292552         1.180294
 H         3.135561         1.891618        -0.224336
 H         1.080867         1.297942         2.608442
 H         3.468061        -0.827921         2.408270
 H         1.649653        -1.013602         2.457836
 H         2.128678        -2.219788         0.303685
