19
Iteration:  2886
 C        -0.049175        -0.091865         0.284153
 C         1.434611        -0.122474         0.043644
 O         2.004103         0.142970        -1.216656
 C         3.338944        -0.224382        -0.511862
 C         3.391426         1.044145         0.362067
 C         2.231364         0.732471         1.146245
 O         1.335910         1.749714         1.617857
 C         2.459607        -0.561348         1.946596
 C         2.528388        -1.180575         0.502951
 H         0.083355        -0.522606         1.343360
 H        -0.382737         0.951802         0.300252
 H        -0.608583        -0.812588        -0.288202
 H         4.184440        -0.708517        -1.060025
 H         4.333851         1.338423         0.868532
 H         3.067228         1.912134        -0.245298
 H         1.290806         2.167834         2.443900
 H         3.321593        -0.811977         2.633992
 H         1.494799        -0.949086         2.363061
 H         2.752796        -2.223306         0.391218
