19
Iteration:  2298
 C         0.011335        -0.397849        -0.055583
 C         1.384514        -0.002808         0.096807
 O         2.008793         0.376471        -1.223730
 C         3.219425        -0.223768        -0.454925
 C         3.490575         0.927363         0.440787
 C         2.160028         0.709715         1.265891
 O         1.690491         1.902526         1.850745
 C         2.340025        -0.651468         1.928773
 C         2.346856        -1.121285         0.442915
 H        -0.174583        -0.959536         0.953218
 H        -0.746448         0.381493        -0.179137
 H        -0.184489        -1.091995        -0.907502
 H         4.114736        -0.370276        -1.137399
 H         4.425138         0.906077         1.047644
 H         3.471505         1.716221        -0.356199
 H         0.699333         1.754026         1.827062
 H         3.264379        -0.849142         2.593737
 H         1.384359        -0.901030         2.486583
 H         2.137566        -2.132829         0.138765
