19
Iteration:  3466
 C        -0.033484        -0.388074         0.062123
 C         1.381561        -0.129190         0.119087
 O         2.036496         0.129579        -1.151507
 C         3.250365        -0.142090        -0.490702
 C         3.417040         1.049245         0.387195
 C         2.100387         0.758835         1.179821
 O         1.578393         1.872457         1.846902
 C         2.448902        -0.550771         1.864803
 C         2.406556        -1.149687         0.483146
 H        -0.637608        -0.573870         0.992949
 H        -0.339366         0.594248        -0.437897
 H        -0.203947        -1.258700        -0.619420
 H         3.912807        -0.653724        -1.208744
 H         4.344369         1.309250         0.909871
 H         3.211968         1.996914        -0.205568
 H         1.975871         2.624640         1.368532
 H         3.354669        -0.524133         2.515700
 H         1.550340        -0.920862         2.390062
 H         2.340746        -2.227387         0.381182
