19
Iteration:   708charge 0 multiplicity 1
 C         0.004064         0.072843         0.014017
 C         1.483853        -0.082712        -0.044003
 O         2.127220         0.113544        -1.279357
 C         3.341774        -0.260720        -0.396811
 C         3.436017         1.039754         0.428422
 C         2.167313         0.741527         1.207077
 O         1.429539         1.738336         1.900216
 C         2.364942        -0.671966         1.899162
 C         2.380265        -1.163507         0.486720
 H        -0.393579        -0.229265         0.992320
 H        -0.279827         1.147303        -0.117083
 H        -0.652874        -0.676975        -0.505698
 H         4.276383        -0.744944        -1.023191
 H         4.377662         1.113730         1.064536
 H         3.210517         2.014601        -0.083726
 H         0.553670         1.352425         2.099693
 H         3.184265        -0.801930         2.622706
 H         1.400278        -0.966593         2.305250
 H         2.290628        -2.162829         0.044776
