19
Iteration:  3291charge 0 multiplicity 1
 C        -0.185107        -0.332616        -0.003725
 C         1.341070        -0.141740         0.104118
 O         2.036127         0.068977        -1.313142
 C         3.221999        -0.117471        -0.575385
 C         3.423292         1.019779         0.445527
 C         2.087378         0.792704         1.230113
 O         1.554589         1.873583         1.825505
 C         2.580591        -0.532259         1.948333
 C         2.529056        -1.169755         0.623324
 H        -0.650063        -0.735110         0.854765
 H        -0.837077         0.556520        -0.195915
 H        -0.607565        -1.005544        -0.776357
 H         4.048402        -0.350194        -1.200514
 H         4.283021         0.845271         1.089259
 H         3.306056         1.997086        -0.065948
 H         2.064151         2.656950         1.732101
 H         3.595736        -0.230846         2.375429
 H         1.960918        -1.001734         2.669584
 H         2.408833        -2.260497         0.521613
