19
Iteration:    28charge 0 multiplicity 1
 C        -0.156943        -0.044134        -0.017396
 C         1.396121        -0.145573        -0.049497
 O         2.101774         0.198364        -1.278197
 C         3.347541        -0.200708        -0.364046
 C         3.483760         0.915274         0.646961
 C         2.047257         0.694228         1.203781
 O         1.496445         1.881069         1.663406
 C         2.420294        -0.634199         1.936499
 C         2.452723        -1.209025         0.460345
 H        -0.637219        -0.107514         0.992009
 H        -0.388294         0.979186        -0.403087
 H        -0.643374        -0.830191        -0.641417
 H         4.231109        -0.595856        -0.908697
 H         4.284261         0.701595         1.407772
 H         3.452829         1.898549         0.150336
 H         1.496398         1.900987         2.623311
 H         3.439818        -0.549784         2.383160
 H         1.659340        -1.105328         2.678145
 H         2.648125        -2.291009         0.212457
