19
Iteration:  3914charge 0 multiplicity 1
 C        -0.062239        -0.216989         0.232636
 C         1.448590        -0.169556         0.031101
 O         1.966580         0.170769        -1.204866
 C         3.266207        -0.190617        -0.500572
 C         3.450408         1.102519         0.330759
 C         2.106474         0.691423         1.162262
 O         1.423190         1.844495         1.620394
 C         2.483091        -0.548799         1.998279
 C         2.575776        -1.201553         0.554100
 H        -0.382282        -0.562042         1.233803
 H        -0.451644         0.638988        -0.352044
 H        -0.382010        -0.994770        -0.380443
 H         3.980279        -0.454403        -1.250618
 H         4.420259         1.204450         0.942301
 H         3.428181         1.989635        -0.302856
 H         1.294386         1.881178         2.610459
 H         3.364549        -0.558532         2.597715
 H         1.625849        -0.947775         2.595672
 H         2.646853        -2.256720         0.415053
