19
Iteration:  3069charge 0 multiplicity 1
 C        -0.087206        -0.127420         0.162635
 C         1.303882        -0.221109         0.187343
 O         2.016532         0.066668        -1.162858
 C         3.294721        -0.169453        -0.452017
 C         3.462091         1.056909         0.418652
 C         2.076074         0.718394         1.162274
 O         1.357033         1.821167         1.654999
 C         2.591739        -0.568628         1.875404
 C         2.569370        -1.146050         0.432449
 H        -0.522475        -0.360555         1.229153
 H        -0.403619         0.922223         0.148801
 H        -0.610405        -0.734980        -0.548697
 H         4.038478        -0.671719        -1.109520
 H         4.388192         0.702752         0.981729
 H         3.631732         2.071494        -0.008139
 H         1.758275         2.642310         1.323076
 H         3.530149        -0.345189         2.431035
 H         1.998395        -1.087916         2.734681
 H         2.679728        -2.083854        -0.029115
