19
Iteration:  1789
 C        -0.072358        -0.280297        -0.084683
 C         1.420994        -0.115632         0.037807
 O         1.988138         0.362271        -1.214786
 C         3.296618        -0.096087        -0.411046
 C         3.513334         1.004705         0.498491
 C         2.252402         0.704288         1.247675
 O         1.521808         1.820433         1.842919
 C         2.290808        -0.797542         1.919877
 C         2.390840        -1.186751         0.441190
 H        -0.558899        -0.576127         0.864647
 H        -0.455221         0.766846        -0.434621
 H        -0.152145        -1.060211        -0.794878
 H         4.011138        -0.534374        -1.135862
 H         4.484452         0.952149         1.012538
 H         3.315516         1.929915        -0.131408
 H         2.151123         2.545942         2.132626
 H         3.138612        -0.991765         2.595763
 H         1.232845        -0.742914         2.286640
 H         2.562678        -2.221955         0.236529
