19
Iteration:  3739charge 0 multiplicity 1
 C        -0.118798        -0.182226         0.161555
 C         1.356924        -0.168369         0.092018
 O         2.038187         0.058379        -1.185326
 C         3.298055        -0.200808        -0.417486
 C         3.352809         1.079239         0.378955
 C         2.111683         0.772891         1.202239
 O         1.464848         1.927520         1.696312
 C         2.609240        -0.602384         1.886721
 C         2.570546        -1.215678         0.443078
 H        -0.543037        -0.289911         1.210874
 H        -0.346429         0.914881        -0.152174
 H        -0.570375        -0.838853        -0.567122
 H         4.105905        -0.419339        -1.128008
 H         4.282269         1.222126         0.999438
 H         3.067160         1.854961        -0.359365
 H         0.632946         1.531221         2.050621
 H         3.552484        -0.472048         2.388769
 H         1.908238        -1.056478         2.629234
 H         2.704165        -2.233890         0.254219
