19
Iteration:  1196
 C        -0.067800        -0.143759        -0.018042
 C         1.374697        -0.081229        -0.027639
 O         2.108039         0.204349        -1.273787
 C         3.347654        -0.223251        -0.359422
 C         3.474455         0.994019         0.572182
 C         2.139150         0.771212         1.255304
 O         1.521377         1.894184         1.820524
 C         2.453747        -0.679549         1.850963
 C         2.314667        -1.226997         0.431824
 H        -0.584523        -0.210373         1.005295
 H        -0.533888         0.837777        -0.424310
 H        -0.498101        -1.067727        -0.591308
 H         4.182531        -0.348444        -0.991169
 H         4.296185         1.020602         1.337643
 H         3.479659         1.761287        -0.231524
 H         0.651991         1.519863         2.178970
 H         3.566808        -0.793911         2.231295
 H         1.747346        -1.155574         2.582263
 H         2.193822        -2.278147         0.161215
