19
Iteration:  2178charge 0 multiplicity 1
 C        -0.048767        -0.152060        -0.082656
 C         1.369875        -0.127114        -0.002066
 O         1.994490         0.181183        -1.297290
 C         3.326987        -0.176497        -0.462310
 C         3.419238         1.016760         0.479846
 C         2.107633         0.735196         1.233565
 O         1.585648         1.821636         1.983285
 C         2.448725        -0.583848         1.890583
 C         2.460304        -1.159566         0.407557
 H        -0.550879         0.094176         0.910084
 H        -0.459991         0.507216        -0.777664
 H        -0.520152        -0.988680        -0.577738
 H         4.218701        -0.661787        -0.921995
 H         4.206974         0.853346         1.262838
 H         3.326547         1.978470        -0.085717
 H         1.215320         1.343092         2.758481
 H         3.296480        -0.651906         2.605527
 H         1.624614        -1.124330         2.345409
 H         2.361306        -2.242095         0.396275
