19
Iteration:  3255charge 0 multiplicity 1
 C        -0.037826        -0.198854         0.071262
 C         1.461147        -0.223223         0.085684
 O         1.991240         0.114016        -1.223802
 C         3.253367        -0.216127        -0.482500
 C         3.344139         1.133928         0.337080
 C         2.184436         0.792985         1.155996
 O         1.448290         1.771815         1.868066
 C         2.480501        -0.527160         1.923679
 C         2.494939        -1.233473         0.586362
 H        -0.390188        -0.386120         1.095009
 H        -0.051921         0.883402        -0.068675
 H        -0.436960        -0.811821        -0.780347
 H         4.057818        -0.477100        -1.206581
 H         4.369134         1.448636         0.609640
 H         3.132394         1.915111        -0.393755
 H         1.487511         2.497384         1.244307
 H         3.431592        -0.573282         2.492920
 H         1.689912        -0.894863         2.583250
 H         2.509176        -2.341394         0.463495
