19
Iteration:  4113
 C        -0.078695        -0.266224         0.004262
 C         1.407107        -0.187440         0.051407
 O         2.004700         0.081979        -1.251210
 C         3.275605        -0.210181        -0.467759
 C         3.362905         1.143537         0.321446
 C         2.107326         0.770588         1.218351
 O         1.469743         1.854474         1.857991
 C         2.519562        -0.544271         1.977140
 C         2.514320        -1.174654         0.550042
 H        -0.295206        -0.321606         1.078200
 H        -0.636979         0.685510        -0.134354
 H        -0.409704        -1.163415        -0.518214
 H         4.191064        -0.516323        -1.049172
 H         4.307034         1.255965         0.890526
 H         3.280941         1.957623        -0.472550
 H         1.875889         2.716160         1.706380
 H         3.482677        -0.775263         2.466554
 H         1.637193        -1.095447         2.472593
 H         2.676152        -2.325850         0.464453
