19
Iteration:  4366charge 0 multiplicity 1
 C        -0.140039        -0.309861         0.139281
 C         1.378511        -0.164192         0.057083
 O         1.977870         0.054631        -1.184271
 C         3.320422        -0.143196        -0.522414
 C         3.469543         1.052350         0.327839
 C         2.112422         0.806321         1.162725
 O         1.378692         1.819680         1.703715
 C         2.617521        -0.498194         1.973268
 C         2.528694        -1.078220         0.582831
 H        -0.456353        -0.771473         1.087275
 H        -0.684860         0.658258         0.194438
 H        -0.535813        -0.935632        -0.740254
 H         4.113256        -0.479525        -1.209396
 H         4.433024         0.988190         0.866894
 H         3.522165         2.063287        -0.267929
 H         1.662054         2.116438         2.580526
 H         3.630684        -0.622182         2.249969
 H         1.814355        -0.975665         2.533243
 H         2.349405        -2.230588         0.212822
