19
Iteration:  2347charge 0 multiplicity 1
 C        -0.106849        -0.177363        -0.119622
 C         1.384335        -0.155134        -0.061309
 O         2.034851         0.107712        -1.279249
 C         3.206295        -0.217973        -0.464926
 C         3.337744         1.076433         0.482327
 C         2.098690         0.696281         1.279597
 O         1.696019         1.914923         1.981769
 C         2.489038        -0.591683         1.922607
 C         2.465639        -1.130209         0.464157
 H        -0.556110        -0.118902         0.836150
 H        -0.436382         0.686365        -0.782254
 H        -0.527660        -1.077976        -0.607315
 H         3.933704        -0.701730        -1.064280
 H         4.325951         1.000963         1.077657
 H         3.223597         2.076235         0.024924
 H         1.167338         1.496670         2.644403
 H         3.484847        -0.622292         2.348796
 H         1.665604        -1.085940         2.472928
 H         2.537104        -2.234626         0.245661
