19
Iteration:    26
 C        -0.148035        -0.042195        -0.020892
 C         1.386320        -0.130840        -0.049016
 O         2.087310         0.198683        -1.284594
 C         3.362922        -0.198802        -0.360120
 C         3.470251         0.908296         0.669952
 C         2.032176         0.689073         1.185437
 O         1.503763         1.871636         1.658898
 C         2.434957        -0.620985         1.930144
 C         2.451306        -1.206261         0.473374
 H        -0.611415        -0.114364         1.018446
 H        -0.381495         0.988662        -0.406193
 H        -0.615170        -0.845628        -0.661592
 H         4.234021        -0.615541        -0.903859
 H         4.226955         0.712982         1.410891
 H         3.488936         1.885184         0.176419
 H         1.576120         1.846712         2.602172
 H         3.442221        -0.510249         2.370925
 H         1.677507        -1.131708         2.723189
 H         2.628934        -2.337936         0.190937
