19
Iteration:  1717
 C        -0.073405         0.049954        -0.005213
 C         1.444450        -0.000913         0.099839
 O         2.145549         0.114899        -1.257356
 C         3.285716        -0.219059        -0.464076
 C         3.411899         1.019101         0.374255
 C         2.152112         0.720300         1.205145
 O         1.338304         1.617391         1.918026
 C         2.457419        -0.583981         1.896036
 C         2.442530        -1.174312         0.466664
 H        -0.613788         0.018844         0.919732
 H        -0.287154         0.943220        -0.593358
 H        -0.258169        -0.784241        -0.753625
 H         4.272684        -0.534452        -0.869869
 H         4.387497         1.135968         0.857639
 H         3.269144         1.954164        -0.258200
 H         1.607589         1.591335         2.902988
 H         3.399821        -0.862154         2.421084
 H         1.503587        -0.906204         2.334906
 H         2.528442        -2.231746         0.067709
