19
Iteration:  3248charge 0 multiplicity 1
 C        -0.033639        -0.187852         0.117743
 C         1.439812        -0.121795         0.022576
 O         2.070588         0.091088        -1.231694
 C         3.223999        -0.250775        -0.526385
 C         3.364424         1.149476         0.296297
 C         2.157695         0.735999         1.155229
 O         1.437746         1.734319         1.876685
 C         2.502317        -0.500193         2.022440
 C         2.494513        -1.226844         0.555678
 H        -0.274052        -0.453882         1.112547
 H        -0.297793         0.920557        -0.130814
 H        -0.536976        -0.818726        -0.649252
 H         4.048831        -0.501557        -1.143066
 H         4.326006         1.315311         0.827118
 H         3.025240         1.936296        -0.425152
 H         1.241495         2.489126         1.332121
 H         3.526265        -0.454826         2.518156
 H         1.661531        -0.742565         2.643156
 H         2.362090        -2.304052         0.347885
