19
Iteration:  2848charge 0 multiplicity 1
 C        -0.160546        -0.288496        -0.017709
 C         1.328599        -0.127388         0.082211
 O         1.936214         0.035040        -1.200486
 C         3.272114        -0.256554        -0.453115
 C         3.475870         1.025528         0.398285
 C         2.174701         0.833197         1.212336
 O         1.431569         1.853941         1.851146
 C         2.650962        -0.470600         1.820821
 C         2.499663        -1.118907         0.519044
 H        -0.602565        -0.790149         0.815451
 H        -0.720364         0.670378        -0.062900
 H        -0.440747        -0.891840        -0.924334
 H         4.081801        -0.578145        -1.113550
 H         4.329928         1.010018         1.137043
 H         3.520003         2.040523        -0.088756
 H         2.076256         2.420431         2.322577
 H         3.620176        -0.520687         2.325761
 H         1.821735        -0.718221         2.543841
 H         2.528276        -2.251039         0.361175
