19
Iteration:  2475
 C        -0.134332        -0.465933        -0.010694
 C         1.367059        -0.053074        -0.042390
 O         1.980222         0.182546        -1.316163
 C         3.215781        -0.209534        -0.491215
 C         3.481711         0.963851         0.466931
 C         2.121664         0.882857         1.208913
 O         1.731809         1.999821         1.999584
 C         2.448259        -0.575625         1.852562
 C         2.473911        -1.166669         0.507315
 H        -0.338455        -1.151887         0.797362
 H        -1.053799         0.184806         0.284043
 H        -0.386304        -0.895110        -0.967940
 H         4.029418        -0.657359        -1.011715
 H         4.342638         0.778683         1.099985
 H         3.585009         1.923229        -0.011065
 H         0.742937         1.828391         2.137372
 H         3.229776        -0.651333         2.629437
 H         1.615345        -0.851123         2.523742
 H         2.168831        -2.141687         0.154565
