19
Iteration:  2795
 C        -0.122985        -0.474751        -0.056847
 C         1.304566        -0.147238        -0.007041
 O         2.033760         0.073517        -1.202259
 C         3.244912        -0.175986        -0.477871
 C         3.421029         1.089479         0.308414
 C         2.101136         0.874412         1.174070
 O         1.776131         1.952164         2.039472
 C         2.401805        -0.591682         1.922410
 C         2.436379        -1.119365         0.519631
 H        -0.369713        -0.602714         1.012025
 H        -0.845354         0.244316        -0.467808
 H        -0.387011        -1.469753        -0.511679
 H         4.100958        -0.391417        -1.109475
 H         4.324461         1.272760         0.939009
 H         3.447052         2.068248        -0.171835
 H         1.185310         2.614808         1.647063
 H         3.346587        -0.629353         2.518923
 H         1.460118        -1.041715         2.440405
 H         2.350446        -2.152785         0.192714
