19
Iteration:  2415
 C        -0.101380        -0.081620         0.094800
 C         1.376268        -0.140658         0.064350
 O         2.052315         0.148221        -1.185968
 C         3.256400        -0.202307        -0.502513
 C         3.477735         0.936807         0.434029
 C         2.101525         0.726348         1.196974
 O         1.437400         1.870362         1.801643
 C         2.556495        -0.604491         1.891248
 C         2.481467        -1.144366         0.400498
 H        -0.420707        -0.436705         1.106671
 H        -0.345407         0.888854        -0.245420
 H        -0.491277        -0.851062        -0.634255
 H         4.181981        -0.616491        -1.059401
 H         4.390772         0.678558         1.066536
 H         3.444720         1.980501         0.045528
 H         0.788120         1.615983         2.510984
 H         3.586746        -0.443336         2.198885
 H         1.867440        -0.994999         2.694716
 H         2.383076        -2.211436        -0.021295
