19
Iteration:  2399
 C        -0.081565        -0.022350         0.062273
 C         1.426933        -0.080019         0.026855
 O         2.045297         0.099560        -1.295624
 C         3.285044        -0.217570        -0.559873
 C         3.438019         1.027708         0.440286
 C         2.136471         0.770955         1.201001
 O         1.414621         1.744702         1.876723
 C         2.592566        -0.544026         1.913356
 C         2.425875        -1.254192         0.525905
 H        -0.503051        -0.018977         1.065306
 H        -0.409058         1.003768        -0.382013
 H        -0.641705        -0.787419        -0.445443
 H         4.036546        -0.421087        -1.274046
 H         4.257754         1.130701         1.190610
 H         3.677719         1.869508        -0.202668
 H         0.985098         1.154410         2.499950
 H         3.562863        -0.534226         2.444332
 H         1.731331        -0.970227         2.443748
 H         2.269224        -2.322997         0.509577
