19
Iteration:  3526
 C        -0.095875        -0.304370         0.095271
 C         1.406052        -0.056044         0.052020
 O         2.005949         0.075900        -1.224321
 C         3.284680        -0.219556        -0.377573
 C         3.395163         1.086024         0.361991
 C         2.114940         0.750896         1.125334
 O         1.487398         1.924945         1.810856
 C         2.589697        -0.564780         1.873306
 C         2.456230        -1.166227         0.472588
 H        -0.393516        -0.578022         1.079740
 H        -0.643666         0.576728        -0.121395
 H        -0.415291        -1.002124        -0.725451
 H         4.055366        -0.544088        -1.019879
 H         4.201148         1.138733         1.086029
 H         3.272096         1.806552        -0.404108
 H         1.783937         1.753817         2.760308
 H         3.382930        -0.475036         2.607943
 H         1.713853        -0.980654         2.355168
 H         2.342632        -2.236193         0.226525
