19
Iteration:  2894charge 0 multiplicity 1
 C        -0.021904        -0.087142         0.349498
 C         1.449303        -0.177221         0.070660
 O         2.024864         0.111005        -1.251622
 C         3.292266        -0.214342        -0.470465
 C         3.429701         1.102529         0.389363
 C         2.188613         0.756260         1.184690
 O         1.342411         1.765188         1.595995
 C         2.395228        -0.568208         1.921109
 C         2.573192        -1.212401         0.427370
 H        -0.319129        -0.377877         1.441175
 H        -0.449983         0.888280         0.257865
 H        -0.577983        -0.805761        -0.261345
 H         4.049190        -0.642059        -1.083104
 H         4.413468         1.418994         0.884113
 H         3.302227         1.892124        -0.385426
 H         1.573781         2.013697         2.479774
 H         3.252869        -0.583042         2.648531
 H         1.428915        -1.045241         2.353737
 H         2.774265        -2.196972         0.144600
