19
Iteration:  4245
 C        -0.077557        -0.275502         0.056246
 C         1.385913        -0.166632         0.051419
 O         1.963815         0.028527        -1.188766
 C         3.248796        -0.183658        -0.446848
 C         3.437204         1.100243         0.348154
 C         2.142844         0.795841         1.157844
 O         1.504292         1.810430         1.888688
 C         2.590030        -0.489177         1.926347
 C         2.498014        -1.099248         0.534205
 H        -0.480053        -0.410389         1.022972
 H        -0.578363         0.467563        -0.524804
 H        -0.380582        -1.144770        -0.563481
 H         4.095171        -0.626890        -1.041610
 H         4.359753         0.963330         0.889906
 H         3.355029         2.003626        -0.338821
 H         0.769492         2.166107         1.374848
 H         3.568388        -0.365995         2.237942
 H         1.785166        -0.692693         2.596418
 H         2.320082        -2.188458         0.100565
