19
Iteration:  4614charge 0 multiplicity 1
 C        -0.135766        -0.353588         0.140327
 C         1.389865        -0.105922         0.064504
 O         2.032738         0.080548        -1.222181
 C         3.329074        -0.192306        -0.475823
 C         3.468279         1.094587         0.269916
 C         2.171438         0.799175         1.142723
 O         1.387448         1.812116         1.822547
 C         2.556180        -0.512308         1.961976
 C         2.430134        -1.105891         0.505900
 H        -0.477855        -0.931868         0.966359
 H        -0.858762         0.541576        -0.026171
 H        -0.323876        -1.060634        -0.756289
 H         4.197432        -0.496048        -1.181506
 H         4.460148         1.146781         0.819923
 H         3.529757         2.031759        -0.433942
 H         1.928152         2.315025         2.414723
 H         3.397631        -0.643095         2.718320
 H         1.674363        -0.716010         2.689633
 H         2.238903        -2.175994         0.335789
