19
Iteration:  1450charge 0 multiplicity 1
 C        -0.123046        -0.290394        -0.212131
 C         1.351117        -0.024543         0.014187
 O         2.089265         0.222635        -1.212769
 C         3.285064        -0.286824        -0.449613
 C         3.493908         1.078583         0.432168
 C         2.217428         0.798885         1.246192
 O         1.486405         1.753384         1.964245
 C         2.460759        -0.570117         1.905867
 C         2.263324        -1.130333         0.516098
 H        -0.371641        -0.865561         0.689799
 H        -0.631024         0.652459        -0.111200
 H        -0.064973        -0.914088        -1.047332
 H         4.052918        -0.712097        -1.103655
 H         4.258348         0.999949         1.190552
 H         3.575895         1.969216        -0.196672
 H         2.102233         2.165921         2.615945
 H         3.436688        -0.986855         2.243992
 H         1.697602        -0.908256         2.573274
 H         2.347720        -2.134524         0.161437
