19
Iteration:  2363charge 0 multiplicity 1
 C        -0.121405        -0.062454        -0.071199
 C         1.384256        -0.114216         0.078175
 O         2.087451         0.039741        -1.248512
 C         3.333284        -0.204587        -0.509413
 C         3.326847         1.146726         0.348858
 C         2.134501         0.783113         1.202350
 O         1.610980         1.799930         2.006036
 C         2.465070        -0.655111         1.879628
 C         2.424747        -1.220760         0.481888
 H        -0.539537         0.144585         0.959438
 H        -0.293256         0.772568        -0.726987
 H        -0.461656        -0.974076        -0.574324
 H         4.283120        -0.408292        -1.103396
 H         4.104106         1.401499         1.017758
 H         2.970649         1.843556        -0.415884
 H         1.198173         1.574816         2.849855
 H         3.256054        -0.771425         2.660403
 H         1.638379        -1.044224         2.499797
 H         2.314069        -2.269811         0.259680
