19
Iteration:  4022charge 0 multiplicity 1
 C        -0.184390        -0.357523         0.000888
 C         1.328706        -0.253903         0.045871
 O         1.997854         0.099932        -1.273529
 C         3.276491        -0.189353        -0.506732
 C         3.442608         1.101810         0.456951
 C         2.161108         0.795699         1.211754
 O         1.570590         1.896360         1.880054
 C         2.500737        -0.468452         1.925548
 C         2.527215        -1.185240         0.497232
 H        -0.552869        -0.416369         1.102759
 H        -0.681138         0.663122        -0.241934
 H        -0.513765        -1.211764        -0.597802
 H         4.230899        -0.417601        -0.928842
 H         4.363202         1.066577         1.094312
 H         3.402086         2.022055        -0.082137
 H         1.204854         2.372741         1.133792
 H         3.486170        -0.479343         2.553158
 H         1.766966        -0.841122         2.728659
 H         2.573739        -2.238394         0.425096
