19
Iteration:  1686charge 0 multiplicity 1
 C        -0.127649        -0.129823         0.013768
 C         1.364970        -0.185688         0.001829
 O         2.105228         0.217550        -1.199036
 C         3.262401        -0.072489        -0.458938
 C         3.485587         0.973280         0.579070
 C         2.134394         0.681543         1.184390
 O         1.459088         1.840271         1.789631
 C         2.416709        -0.631924         1.853725
 C         2.473928        -1.209926         0.421239
 H        -0.549028        -0.263747         1.034102
 H        -0.421776         0.801927        -0.389426
 H        -0.638238        -0.808856        -0.771413
 H         4.093579        -0.384665        -1.052701
 H         4.450927         0.877625         1.161602
 H         3.602509         1.983037         0.236050
 H         1.627297         1.897902         2.709066
 H         3.402745        -0.967639         2.343993
 H         1.599744        -1.096436         2.420666
 H         2.679972        -2.280668         0.182073
