19
Iteration:  1117
 C        -0.156905        -0.235427        -0.214190
 C         1.283667        -0.077835        -0.074781
 O         2.164728         0.169688        -1.273660
 C         3.368308        -0.283864        -0.409199
 C         3.354921         0.960115         0.541715
 C         2.060643         0.750997         1.193394
 O         1.676416         1.924197         1.982527
 C         2.408314        -0.597226         1.907037
 C         2.360855        -1.101539         0.493630
 H        -0.527666        -0.658720         0.823591
 H        -0.856085         0.640568        -0.363455
 H        -0.455900        -0.963333        -1.018598
 H         4.117011        -0.773991        -1.021673
 H         4.195624         1.084867         1.234815
 H         3.408190         1.962745         0.074659
 H         2.029657         1.570814         2.867053
 H         3.437236        -0.665474         2.360157
 H         1.662962        -0.751484         2.751080
 H         2.381213        -2.143751         0.165506
