19
Iteration:   285
 C        -0.125378        -0.249917        -0.102623
 C         1.398420        -0.043927        -0.030835
 O         2.129867         0.211037        -1.236729
 C         3.280735        -0.185426        -0.431951
 C         3.453166         1.031039         0.441535
 C         2.115303         0.724987         1.243250
 O         1.758446         1.820345         1.966858
 C         2.167052        -0.636478         1.874017
 C         2.472344        -1.163100         0.500949
 H        -0.443529        -0.755609         0.815616
 H        -0.735316         0.632120        -0.223185
 H        -0.407464        -0.956795        -0.852951
 H         4.235740        -0.479537        -0.972263
 H         4.311761         1.047978         1.137029
 H         3.365718         1.968825        -0.155791
 H         0.758018         1.920671         2.065348
 H         2.811574        -0.717950         2.781340
 H         1.133041        -0.857098         2.116218
 H         2.638774        -2.246527         0.148223
