19
Iteration:   238charge 0 multiplicity 1
 C        -0.089940        -0.075747        -0.187682
 C         1.382864        -0.026931         0.065535
 O         2.062728         0.160270        -1.244946
 C         3.235205        -0.229262        -0.469824
 C         3.448386         0.899474         0.532192
 C         2.156050         0.706574         1.250578
 O         1.512660         1.784863         1.888999
 C         2.555525        -0.610792         1.957156
 C         2.413944        -1.072372         0.502234
 H        -0.771988        -0.469749         0.611596
 H        -0.445658         0.941663        -0.549718
 H        -0.287721        -0.877322        -0.956287
 H         4.109730        -0.446136        -1.090867
 H         4.315430         0.542436         1.165564
 H         3.557042         1.919321         0.103867
 H         0.581203         1.662052         1.830485
 H         3.617564        -0.555553         2.425554
 H         1.679713        -1.099836         2.481594
 H         2.224040        -2.047375         0.347027
