19
Iteration:  3110
 C        -0.037375        -0.293903         0.058865
 C         1.438922        -0.184290         0.049624
 O         2.019127         0.058808        -1.200253
 C         3.198353        -0.211302        -0.442525
 C         3.431515         1.110704         0.236486
 C         2.181001         0.831126         1.157200
 O         1.492474         1.789176         1.905577
 C         2.437322        -0.490222         1.945818
 C         2.445421        -1.137723         0.517968
 H        -0.406627        -0.705097         1.092226
 H        -0.525583         0.661508        -0.001372
 H        -0.422129        -0.939640        -0.706428
 H         4.098010        -0.548808        -0.961874
 H         4.317185         1.446522         0.741930
 H         3.261251         1.816970        -0.577308
 H         2.065843         2.582680         2.128811
 H         3.353941        -0.509522         2.442905
 H         1.545271        -0.902105         2.479133
 H         2.386639        -2.189472         0.268614
