19
Iteration:  4052
 C        -0.018602        -0.303715         0.061385
 C         1.396132        -0.111578         0.166568
 O         2.038161         0.152015        -1.169686
 C         3.260153        -0.272460        -0.534803
 C         3.459710         1.055190         0.321253
 C         2.164727         0.787376         1.215350
 O         1.453908         1.837007         1.849423
 C         2.468682        -0.495481         1.909394
 C         2.437430        -1.118822         0.481019
 H        -0.382333        -0.445753         1.044596
 H        -0.415593         0.416624        -0.586383
 H        -0.383918        -1.306429        -0.353408
 H         4.194693        -0.596261        -0.973252
 H         4.421318         1.178250         0.767518
 H         3.348964         1.904952        -0.351388
 H         0.766506         2.055384         1.184640
 H         3.435458        -0.589753         2.453381
 H         1.764463        -0.984333         2.575963
 H         2.363534        -2.158860         0.398468
