19
Iteration:  2210charge 0 multiplicity 1
 C        -0.169205         0.020114        -0.127708
 C         1.337955        -0.084796         0.057403
 O         2.033387         0.125296        -1.260837
 C         3.346104        -0.256307        -0.424775
 C         3.488244         1.133837         0.411817
 C         2.181719         0.717982         1.187672
 O         1.414206         1.709973         1.939003
 C         2.591875        -0.654278         1.933831
 C         2.423281        -1.172716         0.457250
 H        -0.650370        -0.236950         0.885710
 H        -0.278080         1.039803        -0.385651
 H        -0.433290        -0.797800        -0.870240
 H         4.157741        -0.819883        -0.976165
 H         4.336270         1.412610         1.076135
 H         3.358732         2.068523        -0.216226
 H         1.201151         1.326404         2.833909
 H         3.627029        -0.606496         2.351530
 H         1.817011        -1.158620         2.528646
 H         2.304663        -2.259388         0.443061
