19
Iteration:  4137
 C        -0.113511        -0.353484         0.030112
 C         1.389484        -0.114653         0.163390
 O         2.024709         0.057709        -1.206304
 C         3.274724        -0.220070        -0.512930
 C         3.413531         1.119035         0.375756
 C         2.189087         0.793073         1.168327
 O         1.472802         1.818435         1.806332
 C         2.535004        -0.481739         1.957800
 C         2.417247        -1.137793         0.474338
 H        -0.639354        -0.728832         0.884905
 H        -0.587899         0.592204        -0.104070
 H        -0.181645        -1.126414        -0.853075
 H         4.193690        -0.406150        -1.115170
 H         4.347810         1.274027         0.922711
 H         3.351147         1.965273        -0.432814
 H         1.904214         2.533489         2.250209
 H         3.419370        -0.481434         2.662556
 H         1.669207        -0.855137         2.608391
 H         2.296918        -2.262421         0.165286
