19
Iteration:  1646
 C        -0.003457        -0.359963        -0.024044
 C         1.448311        -0.062832         0.016924
 O         2.128234         0.362897        -1.202214
 C         3.234543        -0.224682        -0.476157
 C         3.498804         0.946872         0.438865
 C         2.147955         0.781289         1.305750
 O         1.467295         1.881553         1.862561
 C         2.303201        -0.682371         1.852499
 C         2.299287        -1.167039         0.435928
 H        -0.087146        -0.960872         0.920062
 H        -0.702117         0.501710        -0.240657
 H        -0.064015        -0.980291        -0.929379
 H         4.026441        -0.523451        -1.165827
 H         4.455146         0.761979         1.052144
 H         3.719286         1.925079        -0.067064
 H         2.027049         2.246907         2.628864
 H         3.211952        -0.788161         2.483704
 H         1.394389        -0.865057         2.427783
 H         2.344810        -2.213669         0.197185
