19
Iteration:  1065
 C        -0.033276         0.052234         0.115127
 C         1.431679        -0.069240         0.063177
 O         2.117764         0.185733        -1.215245
 C         3.297110        -0.229379        -0.491705
 C         3.486946         0.997395         0.521446
 C         2.107049         0.670503         1.254595
 O         1.396452         1.777383         1.641052
 C         2.387679        -0.716871         1.933151
 C         2.493844        -1.207926         0.454314
 H        -0.350509        -0.075380         1.176947
 H        -0.159869         1.074415        -0.356668
 H        -0.632386        -0.628988        -0.571572
 H         4.075661        -0.378914        -1.183157
 H         4.429189         0.972649         1.078958
 H         3.515260         1.838825        -0.166281
 H         0.775672         1.619168         2.405417
 H         3.317507        -0.685802         2.609858
 H         1.452811        -1.111009         2.351313
 H         2.304843        -2.218082         0.106060
