19
Iteration:  3340
 C        -0.102989        -0.381608         0.148476
 C         1.409185        -0.112608         0.064779
 O         2.045627         0.102986        -1.276883
 C         3.306494        -0.191297        -0.548507
 C         3.427732         1.080265         0.326975
 C         2.199648         0.785934         1.210938
 O         1.509923         1.845584         1.857826
 C         2.382673        -0.513748         1.998154
 C         2.447530        -1.093973         0.502375
 H        -0.545875        -0.804532         1.140251
 H        -0.748404         0.419088        -0.225439
 H        -0.404429        -1.245736        -0.505779
 H         4.132521        -0.514370        -1.272464
 H         4.406338         0.967214         0.827332
 H         3.274346         1.981551        -0.270485
 H         2.176624         2.594726         1.709225
 H         3.078063        -0.783000         2.772528
 H         1.295427        -0.723146         2.310955
 H         2.608098        -2.162627         0.252886
