19
Iteration:  2022
 C        -0.129532        -0.107098        -0.076999
 C         1.414195        -0.066141         0.135872
 O         2.075549         0.163980        -1.217679
 C         3.302354        -0.243955        -0.518552
 C         3.519757         1.092701         0.465210
 C         2.180248         0.796422         1.199433
 O         1.455103         1.696880         1.867379
 C         2.413601        -0.649287         1.954768
 C         2.420994        -1.154980         0.431508
 H        -0.775241        -0.773003         0.562833
 H        -0.482065         0.892032        -0.070591
 H        -0.283075        -0.509232        -1.150804
 H         4.052521        -0.500777        -1.273117
 H         4.362283         1.158026         1.160545
 H         3.364450         1.981935        -0.140579
 H         1.641072         1.537122         2.769832
 H         3.317490        -0.635543         2.574066
 H         1.497462        -0.930254         2.489597
 H         2.361213        -2.227283         0.059838
