19
Iteration:  1972charge 0 multiplicity 1
 C        -0.156467        -0.283275         0.025915
 C         1.382544        -0.030179         0.020560
 O         2.062256         0.237396        -1.290466
 C         3.336068        -0.074237        -0.387241
 C         3.525685         0.926649         0.633626
 C         2.130495         0.665951         1.278811
 O         1.507557         1.854050         1.856472
 C         2.385129        -0.657974         1.759018
 C         2.408925        -1.146974         0.356614
 H        -0.479362        -0.398943         1.077296
 H        -0.811482         0.423770        -0.531546
 H        -0.303639        -1.260200        -0.370851
 H         4.189647        -0.420769        -0.981495
 H         4.356010         0.486615         1.254392
 H         3.538504         1.972937         0.324418
 H         2.224034         2.547172         1.938094
 H         3.176896        -0.596328         2.531803
 H         1.453367        -1.127786         2.043659
 H         2.392228        -2.103681        -0.120333
