19
Iteration:  3058charge 0 multiplicity 1
 C        -0.116021        -0.168994         0.210884
 C         1.454195        -0.197911         0.051558
 O         1.949032         0.140610        -1.190288
 C         3.266999        -0.213944        -0.494619
 C         3.493676         1.031680         0.428687
 C         2.170043         0.752669         1.175393
 O         1.307830         1.804295         1.684539
 C         2.634202        -0.544520         1.908526
 C         2.490906        -1.190033         0.519952
 H        -0.618987        -0.427869         1.217202
 H        -0.319013         0.856925        -0.108847
 H        -0.544703        -0.765102        -0.583356
 H         4.098063        -0.548715        -1.142240
 H         4.292564         0.911173         1.225694
 H         3.718695         2.004238        -0.059672
 H         1.613875         2.649777         1.235634
 H         3.637593        -0.547893         2.367970
 H         1.702603        -0.869375         2.474929
 H         2.575647        -2.236318         0.329632
