19
Iteration:  1045
 C        -0.097771         0.023322         0.112634
 C         1.357708        -0.212030        -0.079061
 O         2.144907         0.189214        -1.216748
 C         3.353649        -0.223275        -0.389774
 C         3.430461         1.035127         0.571778
 C         2.044770         0.664264         1.125097
 O         1.528691         1.845846         1.741740
 C         2.477556        -0.624663         1.862935
 C         2.387902        -1.241576         0.444220
 H        -0.399674        -0.208099         1.142356
 H        -0.524125         0.991033        -0.264829
 H        -0.882938        -0.538698        -0.485921
 H         4.319990        -0.632585        -0.813167
 H         4.181634         0.919013         1.391916
 H         3.578607         2.056804         0.175193
 H         0.728362         1.526601         2.226614
 H         3.537092        -0.581290         2.287098
 H         1.669069        -1.080509         2.442263
 H         2.573111        -2.287165         0.185308
