19
Iteration:  4782charge 0 multiplicity 1
 C        -0.107033        -0.311759         0.081253
 C         1.368866        -0.186497         0.143130
 O         1.964636         0.085813        -1.242241
 C         3.233654        -0.114809        -0.508841
 C         3.460064         1.132201         0.360806
 C         2.190212         0.765615         1.122903
 O         1.479196         1.756457         1.742953
 C         2.499474        -0.517721         1.986690
 C         2.511336        -1.092235         0.548530
 H        -0.182582        -0.871741         1.059936
 H        -0.601353         0.621326         0.074986
 H        -0.441520        -0.843489        -0.758865
 H         4.086900        -0.492935        -1.114667
 H         4.326463         0.943747         0.995835
 H         3.357935         1.973157        -0.257671
 H         1.988669         2.503145         2.005033
 H         3.360573        -0.531237         2.726379
 H         1.583077        -0.885847         2.615754
 H         2.539537        -2.213028         0.293089
