19
Iteration:  4658charge 0 multiplicity 1
 C        -0.220450        -0.376409         0.107487
 C         1.331554        -0.233012         0.122869
 O         2.034672         0.113177        -1.233892
 C         3.291875        -0.111309        -0.496390
 C         3.447623         1.054930         0.404963
 C         2.122755         0.783303         1.173209
 O         1.474969         1.899432         1.773650
 C         2.529276        -0.581119         1.903155
 C         2.535627        -1.132295         0.518134
 H        -0.642275        -0.263902         1.054633
 H        -0.510410         0.617368        -0.376619
 H        -0.553001        -1.358110        -0.383158
 H         4.194189        -0.398331        -1.092324
 H         4.269029         1.276629         1.114588
 H         3.541112         2.122382        -0.038327
 H         2.022285         2.649781         1.609910
 H         3.531523        -0.635897         2.410453
 H         1.861045        -1.135012         2.622141
 H         2.669447        -2.149889         0.111159
