19
Iteration:  1644
 C        -0.011477        -0.364279        -0.028327
 C         1.450781        -0.061655         0.025845
 O         2.121404         0.361602        -1.208740
 C         3.242599        -0.233804        -0.484752
 C         3.494030         0.961948         0.438550
 C         2.153193         0.794586         1.300449
 O         1.473766         1.867128         1.876474
 C         2.301215        -0.673526         1.844270
 C         2.299136        -1.175080         0.441771
 H        -0.108831        -0.955932         0.901757
 H        -0.659991         0.463355        -0.230971
 H        -0.100978        -0.973081        -0.978257
 H         4.042058        -0.498302        -1.119749
 H         4.432689         0.727760         1.043221
 H         3.799136         1.873576        -0.019884
 H         2.010389         2.271273         2.587479
 H         3.181691        -0.709951         2.565683
 H         1.392505        -0.822058         2.416827
 H         2.332898        -2.224478         0.165971
