19
Iteration:  1996charge 0 multiplicity 1
 C        -0.077616        -0.290983        -0.072451
 C         1.429866        -0.050912        -0.003880
 O         2.110005         0.341184        -1.175552
 C         3.280999        -0.227048        -0.463167
 C         3.435493         0.952350         0.484726
 C         2.132649         0.821565         1.251635
 O         1.481489         1.827397         1.836769
 C         2.422056        -0.758292         1.883305
 C         2.361447        -1.141877         0.455826
 H        -0.228977        -0.576186         0.933493
 H        -0.509962         0.746703        -0.225222
 H        -0.510768        -1.000789        -0.711404
 H         4.092294        -0.359746        -1.197133
 H         4.281044         0.810670         1.154682
 H         3.373991         1.885913        -0.110147
 H         1.986518         2.061286         2.601316
 H         3.387878        -0.876957         2.400852
 H         1.506710        -1.092343         2.445565
 H         2.340827        -2.166232         0.165107
