19
Iteration:  2985
 C        -0.206177        -0.483533        -0.159587
 C         1.328718        -0.240041         0.060377
 O         1.967461         0.047981        -1.336407
 C         3.257127        -0.211945        -0.487985
 C         3.318736         1.052955         0.354712
 C         2.116918         0.834264         1.289005
 O         1.805863         1.924648         2.032969
 C         2.502070        -0.461352         1.991778
 C         2.457857        -0.995546         0.559756
 H        -0.768515        -0.548842         0.752605
 H        -0.462904         0.424683        -0.806109
 H        -0.364638        -1.401979        -0.770213
 H         4.237666        -0.439375        -1.024983
 H         4.201445         1.111845         1.045310
 H         3.416818         1.970630        -0.265353
 H         1.522746         2.731782         1.559455
 H         3.473589        -0.645361         2.604671
 H         1.610127        -0.802157         2.535295
 H         2.465123        -2.122549         0.406693
