19
Iteration:   379charge 0 multiplicity 1
 C        -0.105868         0.079978        -0.075275
 C         1.367709        -0.068228        -0.010256
 O         2.072809         0.021278        -1.300440
 C         3.423993        -0.193989        -0.459656
 C         3.492339         1.043746         0.537196
 C         2.090009         0.734211         1.227744
 O         1.361240         1.724434         1.961290
 C         2.363409        -0.716496         1.890338
 C         2.566508        -1.160238         0.437749
 H        -0.500270         0.051153         0.992708
 H        -0.248024         1.152991        -0.536606
 H        -0.674232        -0.613691        -0.789859
 H         4.160927        -0.515183        -1.170517
 H         4.180989         0.844642         1.378531
 H         3.695584         1.991657        -0.008441
 H         1.952897         2.430764         2.168847
 H         3.244386        -0.788017         2.615931
 H         1.506478        -1.148525         2.431632
 H         2.359458        -2.196537         0.239558
