19
Iteration:  2080charge 0 multiplicity 1
 C        -0.069804        -0.024103        -0.033556
 C         1.364590        -0.087722         0.046509
 O         2.104769         0.136690        -1.167517
 C         3.309260        -0.157544        -0.379224
 C         3.423079         1.129805         0.379911
 C         2.175515         0.703388         1.225279
 O         1.537750         1.730586         1.851559
 C         2.426492        -0.677588         1.868100
 C         2.389061        -1.213600         0.454967
 H        -0.431435        -0.797541         0.773565
 H        -0.760389         0.875402         0.089243
 H        -0.337421        -0.551361        -0.984243
 H         4.134472        -0.487674        -1.033766
 H         4.465308         1.145017         0.838629
 H         3.283915         2.038522        -0.282004
 H         0.687112         1.600351         2.360757
 H         3.295914        -0.713487         2.545373
 H         1.589475        -1.053487         2.421508
 H         2.585863        -2.223825         0.056047
