19
Iteration:  2633
 C        -0.173042        -0.447548        -0.081183
 C         1.275183        -0.170573         0.005738
 O         1.934571         0.131289        -1.268298
 C         3.205605        -0.117852        -0.453707
 C         3.466074         0.940665         0.443869
 C         2.085727         0.791555         1.215228
 O         1.788187         2.067298         1.892029
 C         2.456596        -0.586113         1.942774
 C         2.543509        -1.126203         0.516023
 H        -0.511235        -1.085304         0.820440
 H        -0.707006         0.484257        -0.157024
 H        -0.308255        -1.064040        -1.000642
 H         4.052942        -0.395774        -1.111754
 H         4.393071         0.939740         1.050312
 H         3.609243         1.953186         0.022365
 H         0.942112         2.122607         2.430246
 H         3.407902        -0.442248         2.391177
 H         1.758913        -1.117082         2.567158
 H         2.490665        -2.190642         0.411310
