19
Iteration:  1466charge 0 multiplicity 1
 C        -0.090027        -0.332374        -0.144036
 C         1.389725         0.021091         0.008056
 O         2.076605         0.200151        -1.271209
 C         3.213169        -0.169955        -0.481138
 C         3.503118         0.914649         0.528641
 C         2.106498         0.789896         1.265510
 O         1.506171         1.819591         2.004042
 C         2.449264        -0.591310         1.899943
 C         2.425492        -1.111202         0.431113
 H        -0.613278        -0.903977         0.636274
 H        -0.804645         0.518832        -0.382955
 H        -0.209623        -1.045189        -1.073781
 H         4.106205        -0.629321        -1.071123
 H         4.474829         0.588239         1.030688
 H         3.586152         1.821200        -0.082328
 H         2.241478         2.345386         2.295691
 H         3.329070        -0.406487         2.527987
 H         1.601816        -0.932829         2.586654
 H         1.998821        -2.134760         0.185720
