19
Iteration:  3193charge 0 multiplicity 1
 C        -0.049929        -0.331507         0.066988
 C         1.405538        -0.114248         0.050980
 O         1.964775         0.149184        -1.218023
 C         3.297470        -0.169831        -0.536234
 C         3.387660         1.010519         0.346814
 C         2.129561         0.722278         1.205711
 O         1.549356         1.822351         1.856875
 C         2.453687        -0.510025         1.956767
 C         2.508844        -1.106067         0.555406
 H        -0.477706        -0.290097         1.046254
 H        -0.557792         0.502779        -0.491387
 H        -0.432917        -1.264203        -0.412291
 H         4.157029        -0.427552        -1.123260
 H         4.347289         0.982362         0.912653
 H         3.237414         1.950291        -0.230844
 H         1.368428         2.527389         1.235076
 H         3.399900        -0.570487         2.601799
 H         1.669321        -0.975737         2.514834
 H         2.473750        -2.213980         0.443303
