19
Iteration:  2268
 C        -0.177830        -0.244806         0.064714
 C         1.357413        -0.107886         0.014505
 O         2.093624         0.171547        -1.263625
 C         3.229588        -0.159041        -0.431462
 C         3.536628         1.024119         0.586914
 C         2.109265         0.726691         1.204813
 O         1.636333         1.896967         1.834288
 C         2.377735        -0.643484         1.813955
 C         2.465041        -1.132095         0.366876
 H        -0.251114        -0.900303         0.951072
 H        -0.614211         0.756226         0.406121
 H        -0.627360        -0.693731        -0.796166
 H         4.063660        -0.396828        -1.064521
 H         4.367219         0.764169         1.344290
 H         3.621750         1.935482        -0.066637
 H         0.758086         1.653963         2.092477
 H         3.185126        -0.719658         2.557997
 H         1.562136        -1.104012         2.369392
 H         2.493735        -2.165633         0.095715
