19
Iteration:  3125charge 0 multiplicity 1
 C        -0.170403        -0.383659         0.045960
 C         1.328986         0.013403         0.094957
 O         2.048753        -0.007518        -1.242670
 C         3.349805        -0.264633        -0.521609
 C         3.430664         1.077165         0.281744
 C         2.122261         0.863405         1.131003
 O         1.511468         1.793048         2.001252
 C         2.506854        -0.436759         1.877289
 C         2.453231        -1.101462         0.544328
 H        -0.468228        -0.849182         1.000984
 H        -0.753398         0.493402        -0.335747
 H        -0.185079        -1.183339        -0.738431
 H         4.062715        -0.622733        -1.305719
 H         4.360902         0.993011         0.927715
 H         3.367841         1.999721        -0.354052
 H         2.173475         2.464017         2.168449
 H         3.393330        -0.472585         2.606482
 H         1.581978        -0.645014         2.488449
 H         2.247446        -2.177730         0.434425
