19
Iteration:  3685
 C        -0.064090        -0.380112         0.010162
 C         1.352275        -0.101897         0.152902
 O         2.034586         0.070116        -1.233006
 C         3.285306        -0.235688        -0.506889
 C         3.371688         1.120836         0.229169
 C         2.090193         0.862866         1.131782
 O         1.602444         1.937710         1.943483
 C         2.537903        -0.570817         1.924901
 C         2.436317        -1.146755         0.535809
 H        -0.506943        -0.539378         1.017173
 H        -0.658788         0.523715        -0.297335
 H        -0.279714        -1.046281        -0.743428
 H         4.077371        -0.775099        -1.071369
 H         4.283534         1.265588         0.875998
 H         3.305708         2.032263        -0.414904
 H         1.069988         1.410987         2.610371
 H         3.383597        -0.592525         2.590889
 H         1.611737        -1.008136         2.412055
 H         2.415971        -2.190226         0.388758
