19
Iteration:   496
 C        -0.147657        -0.105462        -0.099718
 C         1.446922        -0.052328        -0.033298
 O         2.141402         0.166658        -1.261101
 C         3.352172        -0.175324        -0.390546
 C         3.411894         1.072162         0.482644
 C         2.131426         0.724875         1.265122
 O         1.568025         1.850835         1.956356
 C         2.293163        -0.841593         1.902051
 C         2.412512        -1.179489         0.412696
 H        -0.387573        -0.570430         0.807245
 H        -0.560747         0.815305        -0.267087
 H        -0.408210        -0.785340        -0.867593
 H         4.253860        -0.557589        -0.774724
 H         4.262969         1.259890         1.105346
 H         3.182546         1.862919        -0.223607
 H         2.050044         2.703505         1.976723
 H         2.978779        -1.244600         2.611842
 H         1.288825        -0.998357         2.287297
 H         2.193500        -2.299595         0.226137
