19
Iteration:  3368
 C        -0.129561        -0.212477         0.124650
 C         1.410087        -0.202173         0.027682
 O         2.010273         0.058299        -1.217954
 C         3.298034        -0.204449        -0.455121
 C         3.380990         1.059006         0.479457
 C         2.020068         0.756671         1.143090
 O         1.490478         1.895001         1.852713
 C         2.586415        -0.525748         1.814889
 C         2.480222        -1.189438         0.495681
 H        -0.535154        -0.511244         1.062089
 H        -0.474911         0.763350        -0.314207
 H        -0.504868        -1.079502        -0.445503
 H         4.121155        -0.388914        -1.128169
 H         4.224079         1.002315         1.177277
 H         3.554057         2.004130        -0.101248
 H         1.792534         2.663794         1.298180
 H         3.611669        -0.504082         2.280481
 H         1.877435        -0.972950         2.537496
 H         2.762777        -2.231606         0.386584
