19
Iteration:  4732
 C        -0.135444        -0.283797         0.051052
 C         1.376004        -0.130853         0.018297
 O         1.993311         0.012684        -1.264108
 C         3.282974        -0.178894        -0.466890
 C         3.411562         1.130541         0.382900
 C         2.099265         0.785123         1.193039
 O         1.528220         1.769321         1.907276
 C         2.559569        -0.491977         1.933930
 C         2.490146        -1.095106         0.566782
 H        -0.382878        -0.369884         1.131936
 H        -0.590943         0.558696        -0.557392
 H        -0.454389        -1.077106        -0.684615
 H         4.063377        -0.656515        -1.194031
 H         4.461419         1.053569         0.917196
 H         3.449387         2.020364        -0.339163
 H         0.989460         2.345872         1.319136
 H         3.575188        -0.484572         2.344466
 H         1.955195        -0.833147         2.745619
 H         2.582413        -2.115414         0.355077
