19
Iteration:  3894
 C        -0.106060        -0.305228         0.230926
 C         1.399779        -0.152660         0.067333
 O         2.081817         0.084207        -1.194111
 C         3.317054        -0.236152        -0.458613
 C         3.405288         1.084172         0.290466
 C         2.186482         0.854815         1.182441
 O         1.421126         1.850569         1.726249
 C         2.521992        -0.526805         1.869520
 C         2.447705        -1.142098         0.479353
 H        -0.191427        -0.288075         1.364631
 H        -0.493757         0.620149        -0.296924
 H        -0.586425        -1.134913        -0.224694
 H         4.192393        -0.549332        -1.012126
 H         4.291003         1.392725         0.953923
 H         3.325770         1.948842        -0.374546
 H         1.078640         1.553507         2.606773
 H         3.306685        -0.539867         2.575634
 H         1.537601        -0.851806         2.267806
 H         2.432241        -2.239783         0.150918
