19
Iteration:  2001
 C        -0.033451        -0.239971        -0.089570
 C         1.409460        -0.040650        -0.010030
 O         2.090463         0.346168        -1.166031
 C         3.282253        -0.202879        -0.429306
 C         3.423794         0.953646         0.435432
 C         2.170670         0.733514         1.252110
 O         1.470258         1.817775         1.842031
 C         2.429012        -0.707439         1.877266
 C         2.366876        -1.167728         0.482663
 H        -0.314221        -0.628069         0.954948
 H        -0.597755         0.670586        -0.146603
 H        -0.476959        -0.993903        -0.834887
 H         4.113749        -0.507749        -1.081448
 H         4.385648         0.935220         0.999487
 H         3.347179         1.844483        -0.179174
 H         1.839442         2.090318         2.734345
 H         3.333293        -0.868895         2.482789
 H         1.529369        -1.079678         2.356252
 H         2.288989        -2.238684         0.144426
