19
Iteration:  1083charge 0 multiplicity 1
 C        -0.091966        -0.037760        -0.044137
 C         1.447651        -0.058730         0.103527
 O         2.050218         0.176778        -1.180688
 C         3.338678        -0.233427        -0.491002
 C         3.577051         0.978141         0.404417
 C         2.242099         0.752941         1.244063
 O         1.359561         1.833914         1.777695
 C         2.359950        -0.685139         1.950485
 C         2.427132        -1.166790         0.448359
 H        -0.409912        -0.427237         0.937902
 H        -0.320788         0.976453        -0.393801
 H        -0.196459        -0.833994        -0.754798
 H         4.028683        -0.837197        -1.139011
 H         4.430391         0.883033         1.073019
 H         3.405278         1.984871        -0.028862
 H         1.168506         1.459047         2.692458
 H         3.074720        -0.967410         2.701088
 H         1.305051        -0.978404         2.257446
 H         2.356602        -2.233300         0.180970
