19
Iteration:  4207charge 0 multiplicity 1
 C        -0.082269        -0.284530         0.113481
 C         1.426215        -0.198769         0.042857
 O         2.005411         0.075966        -1.208937
 C         3.258607        -0.172138        -0.431400
 C         3.405903         1.086708         0.326846
 C         2.143501         0.770755         1.194775
 O         1.528657         1.896787         1.744755
 C         2.472089        -0.523944         1.944834
 C         2.508697        -1.145206         0.462992
 H        -0.319429        -0.494819         1.227980
 H        -0.529358         0.750373         0.169405
 H        -0.396587        -1.098126        -0.542445
 H         4.094881        -0.488969        -1.022895
 H         4.306449         1.302467         0.943671
 H         3.392633         1.938072        -0.288189
 H         0.682910         1.622515         2.118681
 H         3.449597        -0.538682         2.585112
 H         1.671646        -1.023132         2.608051
 H         2.516570        -2.146678         0.237509
