19
Iteration:  2543
 C        -0.151429        -0.066656         0.023581
 C         1.398913        -0.222740         0.091108
 O         1.946098         0.047784        -1.242491
 C         3.298133        -0.171946        -0.475520
 C         3.388930         1.098994         0.388312
 C         2.147222         0.681704         1.180676
 O         1.503629         1.861195         1.811470
 C         2.565706        -0.634982         1.899388
 C         2.569027        -1.128107         0.520626
 H        -0.373645         0.146692         1.046428
 H        -0.321100         1.022633        -0.422165
 H        -0.681785        -0.885029        -0.568277
 H         4.088654        -0.481608        -1.164773
 H         4.279747         1.157160         1.094721
 H         3.435331         2.102232        -0.052137
 H         1.120569         1.444669         2.595788
 H         3.428357        -0.685175         2.555929
 H         1.769085        -1.053149         2.563810
 H         2.464788        -2.211838         0.173530
