19
Iteration:  3206charge 0 multiplicity 1
 C        -0.094048        -0.277751         0.099233
 C         1.394049        -0.249956         0.013368
 O         2.030352         0.076376        -1.237124
 C         3.250486        -0.193477        -0.536347
 C         3.514505         1.112821         0.406736
 C         2.173913         0.868474         1.149308
 O         1.440636         1.833410         1.945593
 C         2.522026        -0.492596         1.909707
 C         2.414813        -1.212494         0.484448
 H        -0.240396        -0.266667         1.190775
 H        -0.580628         0.584630        -0.317590
 H        -0.411275        -1.224623        -0.301435
 H         3.928969        -0.601714        -1.255439
 H         4.312346         1.037609         1.128976
 H         3.753143         2.049553        -0.127635
 H         1.040950         2.435768         1.260917
 H         3.459283        -0.489095         2.491412
 H         1.665600        -0.708165         2.570187
 H         2.430226        -2.258659         0.180580
