19
Iteration:   579
 C        -0.035668        -0.037258        -0.068982
 C         1.438915        -0.033661        -0.021319
 O         2.080588         0.165894        -1.211936
 C         3.268170        -0.173331        -0.413139
 C         3.384042         1.027850         0.533388
 C         2.112007         0.646559         1.202950
 O         1.588798         1.847870         1.882072
 C         2.405863        -0.737106         1.911620
 C         2.440324        -1.235383         0.426705
 H        -0.684898        -0.021353         0.857068
 H        -0.573540         0.911059        -0.474444
 H        -0.342717        -0.917082        -0.730827
 H         4.208691        -0.582908        -0.859855
 H         4.349545         1.066586         1.108846
 H         3.295493         1.914147        -0.114921
 H         0.613798         1.693229         2.077615
 H         3.335635        -0.628516         2.542033
 H         1.497933        -1.123661         2.469578
 H         2.440500        -2.243314         0.020665
