19
Iteration:  1653
 C         0.004689        -0.329200        -0.020920
 C         1.387717        -0.006483        -0.014680
 O         2.125132         0.344279        -1.179612
 C         3.251248        -0.186012        -0.459029
 C         3.539359         0.924201         0.483249
 C         2.139960         0.719526         1.259645
 O         1.462435         1.918955         1.816776
 C         2.326897        -0.688772         1.910608
 C         2.356595        -1.142337         0.411488
 H        -0.292130        -0.867816         0.880147
 H        -0.688158         0.451656        -0.075623
 H        -0.102394        -1.157185        -0.793308
 H         3.931735        -0.647238        -1.150395
 H         4.414301         0.923169         1.116309
 H         3.304380         1.795963        -0.103498
 H         1.967526         2.093913         2.640743
 H         3.299818        -1.126945         2.301196
 H         1.470162        -1.145693         2.435303
 H         2.219594        -2.224588         0.178517
