19
Iteration:  1020
 C        -0.106627        -0.147763        -0.058155
 C         1.402572        -0.037647         0.044879
 O         2.130692         0.118266        -1.274099
 C         3.310426        -0.226002        -0.464295
 C         3.434037         0.960331         0.433187
 C         2.174510         0.771807         1.231588
 O         1.591635         1.885986         1.945503
 C         2.367636        -0.635532         1.922262
 C         2.386710        -1.143542         0.484750
 H        -0.627041        -0.615235         0.826853
 H        -0.683288         0.733765        -0.364544
 H        -0.437467        -0.802052        -0.916326
 H         4.180809        -0.564934        -0.900047
 H         4.339202         1.046739         1.025634
 H         3.303985         1.893574        -0.122906
 H         0.662927         1.514769         2.029997
 H         3.345541        -0.825826         2.463130
 H         1.427724        -0.975228         2.390053
 H         2.316658        -2.187113         0.169794
