19
Iteration:  1312
 C        -0.184383        -0.354761        -0.241914
 C         1.335878        -0.137758        -0.004558
 O         2.023617         0.171816        -1.242838
 C         3.273952        -0.163550        -0.508971
 C         3.437871         1.021947         0.519917
 C         2.149447         0.738056         1.270101
 O         1.678916         1.902685         1.986871
 C         2.325928        -0.545731         1.963659
 C         2.518778        -1.166012         0.473136
 H        -0.859226        -0.616852         0.551252
 H        -0.679169         0.511546        -0.571542
 H        -0.215349        -1.146380        -0.951658
 H         4.116576        -0.418928        -1.244038
 H         4.288120         0.868189         1.214233
 H         3.424420         2.079321         0.123725
 H         2.399942         2.068504         2.673046
 H         3.111861        -0.513582         2.656808
 H         1.337528        -0.754165         2.392006
 H         2.550647        -2.193294         0.068777
