19
Iteration:   467charge 0 multiplicity 1
 C        -0.095284        -0.249742        -0.188671
 C         1.392685        -0.103410        -0.043763
 O         2.071399         0.303604        -1.207821
 C         3.298559        -0.152636        -0.428455
 C         3.500245         0.857984         0.583243
 C         2.070066         0.745476         1.203643
 O         1.663772         1.806148         1.978823
 C         2.297232        -0.596522         1.953470
 C         2.381465        -1.173017         0.378410
 H        -0.532670        -0.780693         0.708059
 H        -0.573371         0.779215        -0.347988
 H        -0.303495        -0.930762        -1.044656
 H         4.174339        -0.538112        -0.975802
 H         4.280997         0.747751         1.347934
 H         3.669218         1.866634         0.107446
 H         1.433539         2.583897         1.497796
 H         3.291133        -0.656132         2.495619
 H         1.465287        -0.803747         2.632653
 H         2.201303        -2.179927         0.224248
