19
Iteration:  4810charge 0 multiplicity 1
 C        -0.073905        -0.358358         0.170213
 C         1.381204        -0.121148         0.104824
 O         2.021673         0.106870        -1.237284
 C         3.296608        -0.253741        -0.515508
 C         3.512268         1.033310         0.347573
 C         2.087464         0.818796         1.135906
 O         1.364378         1.959579         1.812133
 C         2.529937        -0.536293         1.877917
 C         2.500194        -1.116219         0.477873
 H        -0.158315        -0.916514         1.074204
 H        -0.682600         0.614361         0.295997
 H        -0.384576        -1.094578        -0.669655
 H         4.100922        -0.647283        -1.107358
 H         4.375335         0.930255         1.015069
 H         3.413781         1.909603        -0.415881
 H         1.657395         2.076933         2.705098
 H         3.459084        -0.444309         2.415561
 H         1.830456        -1.109449         2.432322
 H         2.403508        -2.190501         0.334314
