19
Iteration:  3194charge 0 multiplicity 1
 C        -0.052268        -0.325309         0.063573
 C         1.402158        -0.125863         0.048991
 O         1.965290         0.146700        -1.218632
 C         3.302066        -0.171243        -0.542413
 C         3.394777         1.019177         0.351559
 C         2.135891         0.726687         1.202847
 O         1.541593         1.824990         1.863300
 C         2.457285        -0.506048         1.956986
 C         2.499039        -1.111994         0.556699
 H        -0.424520        -0.307084         1.082800
 H        -0.546151         0.495652        -0.491191
 H        -0.426197        -1.254273        -0.389998
 H         4.153370        -0.438144        -1.129839
 H         4.328138         0.953132         0.922328
 H         3.256981         1.949653        -0.235971
 H         1.349838         2.511087         1.237533
 H         3.402278        -0.564173         2.576068
 H         1.657906        -0.970363         2.506721
 H         2.475251        -2.208281         0.422969
