19
Iteration:  1028charge 0 multiplicity 1
 C        -0.174574        -0.126387        -0.046924
 C         1.400090        -0.068798        -0.003503
 O         2.165323         0.110451        -1.260672
 C         3.290325        -0.221536        -0.410108
 C         3.461515         0.995284         0.497884
 C         2.129974         0.763552         1.209679
 O         1.579762         1.856471         1.892438
 C         2.397832        -0.647149         1.885899
 C         2.432081        -1.155012         0.443048
 H        -0.504096        -0.352093         1.001482
 H        -0.568594         0.903480        -0.096999
 H        -0.627792        -0.807949        -0.739599
 H         4.106708        -0.594018        -1.086420
 H         4.289404         1.103545         1.201732
 H         3.383826         1.844370        -0.199974
 H         0.612960         1.716123         2.114434
 H         3.290955        -0.712188         2.467957
 H         1.636430        -1.057544         2.576839
 H         2.229546        -2.212493         0.208753
