19
Iteration:  1021charge 0 multiplicity 1
 C        -0.113489        -0.145930        -0.055376
 C         1.406069        -0.039787         0.042801
 O         2.136412         0.115871        -1.274094
 C         3.307616        -0.220788        -0.457505
 C         3.436161         0.956884         0.439651
 C         2.172160         0.772999         1.226394
 O         1.589173         1.884495         1.940962
 C         2.367604        -0.638106         1.918396
 C         2.394714        -1.144416         0.479310
 H        -0.624956        -0.577129         0.842242
 H        -0.701265         0.749047        -0.339594
 H        -0.492239        -0.795121        -0.904462
 H         4.170728        -0.568484        -0.917656
 H         4.329495         1.066594         1.053399
 H         3.299590         1.882422        -0.130622
 H         0.659646         1.525740         2.030385
 H         3.363502        -0.820382         2.453729
 H         1.448034        -0.986672         2.413342
 H         2.306070        -2.186402         0.179366
