19
Iteration:  2056charge 0 multiplicity 1
 C        -0.091778         0.001997        -0.030694
 C         1.381535        -0.174966        -0.038519
 O         2.120325         0.105201        -1.364466
 C         3.308791        -0.281722        -0.469692
 C         3.372295         1.047048         0.527169
 C         2.111565         0.748621         1.208220
 O         1.449467         1.792853         1.968096
 C         2.479195        -0.581780         1.922043
 C         2.486969        -1.190654         0.465478
 H        -0.714608        -0.566247         0.729848
 H        -0.267226         0.999853         0.313153
 H        -0.577444        -0.074590        -1.067157
 H         4.166715        -0.628157        -1.062007
 H         4.212448         1.296185         1.204091
 H         3.283809         1.850597        -0.190052
 H         1.218844         1.493129         2.834359
 H         3.472684        -0.388042         2.370539
 H         1.924233        -1.164913         2.624251
 H         2.585795        -2.234084         0.042077
