19
Iteration:  3542charge 0 multiplicity 1
 C        -0.092920        -0.212545         0.121985
 C         1.421095        -0.230199         0.061825
 O         2.098416         0.099422        -1.275866
 C         3.281144        -0.224621        -0.557471
 C         3.344486         1.088686         0.280560
 C         2.178429         0.820647         1.253550
 O         1.472658         1.858352         1.822586
 C         2.434292        -0.556089         1.969365
 C         2.509035        -1.164840         0.512769
 H        -0.388559        -0.421365         1.206067
 H        -0.464455         0.862758         0.029266
 H        -0.464257        -0.899678        -0.643885
 H         4.130597        -0.672483        -1.209706
 H         4.337859         1.412779         0.676867
 H         3.051671         2.002377        -0.345531
 H         1.247422         1.783791         2.792485
 H         3.425201        -0.714698         2.473085
 H         1.597936        -0.900753         2.629514
 H         2.489873        -2.250882         0.396288
