19
Iteration:   518charge 0 multiplicity 1
 C        -0.056540        -0.009072        -0.046829
 C         1.429633        -0.094495        -0.022516
 O         2.169734         0.142326        -1.238658
 C         3.288569        -0.216906        -0.448889
 C         3.473737         1.010123         0.492965
 C         2.115483         0.718424         1.237272
 O         1.426847         1.707127         1.914628
 C         2.382354        -0.626196         1.851431
 C         2.365661        -1.154020         0.422499
 H        -0.473033        -0.302015         0.883096
 H        -0.249114         0.979281        -0.313725
 H        -0.434778        -0.651343        -0.814667
 H         4.078736        -0.675576        -0.988298
 H         4.312121         0.924853         1.169574
 H         3.414865         1.994062         0.062467
 H         1.931582         2.131474         2.649189
 H         3.171778        -0.507772         2.538270
 H         1.528898        -0.980542         2.412272
 H         2.190892        -2.264021         0.221293
