19
Iteration:  3704charge 0 multiplicity 1
 C        -0.053330        -0.256809        -0.021377
 C         1.379754        -0.158947         0.054614
 O         1.921437         0.066415        -1.204405
 C         3.183685        -0.231462        -0.497095
 C         3.416461         1.012635         0.328213
 C         2.240415         0.780214         1.239556
 O         1.507565         1.845234         1.854234
 C         2.589203        -0.440276         1.979398
 C         2.531609        -1.132025         0.534551
 H        -0.679105        -0.512467         0.862586
 H        -0.501580         0.732576        -0.377078
 H        -0.417635        -0.975263        -0.905027
 H         3.938336        -0.364463        -1.353813
 H         4.395154         1.223642         0.804631
 H         3.295556         2.010751        -0.273236
 H         0.750603         1.480975         2.344414
 H         3.609920        -0.345845         2.419262
 H         1.850528        -0.712540         2.695518
 H         2.447647        -2.226478         0.445122
