19
Iteration:  4368charge 0 multiplicity 1
 C        -0.148633        -0.310100         0.150382
 C         1.376130        -0.144731         0.055070
 O         1.979098         0.036522        -1.188813
 C         3.329339        -0.147091        -0.509764
 C         3.469251         1.057008         0.321760
 C         2.104173         0.795501         1.149226
 O         1.378489         1.826615         1.707980
 C         2.620665        -0.497548         1.969223
 C         2.536233        -1.081190         0.572826
 H        -0.592284        -0.729458         1.088326
 H        -0.637241         0.606288         0.211983
 H        -0.471872        -0.885763        -0.731073
 H         4.066103        -0.473544        -1.183560
 H         4.452977         1.049889         0.887679
 H         3.489613         2.065785        -0.148270
 H         1.693865         2.092351         2.550924
 H         3.633460        -0.631468         2.293295
 H         1.842442        -1.031032         2.493940
 H         2.353571        -2.156081         0.190422
