19
Iteration:  3931charge 0 multiplicity 1
 C        -0.078006        -0.271869         0.084760
 C         1.401817        -0.165321         0.199956
 O         1.985506         0.058401        -1.178411
 C         3.252178        -0.127615        -0.562006
 C         3.407281         0.988749         0.442562
 C         2.160802         0.756818         1.159598
 O         1.401744         1.890096         1.621026
 C         2.577392        -0.509921         1.934319
 C         2.544659        -1.092492         0.486642
 H        -0.449827        -0.558077         1.091144
 H        -0.465295         0.737224        -0.026356
 H        -0.673370        -1.066831        -0.556335
 H         4.113201        -0.476787        -1.195171
 H         4.271420         0.766503         1.023246
 H         3.450175         2.024585         0.021562
 H         1.579838         1.932533         2.613763
 H         3.499464        -0.488157         2.656043
 H         1.827094        -1.010934         2.546514
 H         2.457734        -2.193862         0.252205
