19
Iteration:  2685
 C        -0.111653        -0.209068         0.032978
 C         1.377516        -0.118850        -0.038230
 O         2.031149         0.014285        -1.244477
 C         3.247676        -0.285077        -0.473438
 C         3.423005         1.066299         0.321113
 C         2.217936         0.818647         1.196429
 O         1.497470         1.848192         1.927515
 C         2.523460        -0.474692         1.911951
 C         2.472257        -1.108141         0.526697
 H        -0.325774        -0.948680         0.837191
 H        -0.686569         0.746129         0.277129
 H        -0.410668        -0.589786        -1.000606
 H         3.979797        -0.630774        -1.217305
 H         4.349720         1.156540         0.951633
 H         3.321894         1.992516        -0.299328
 H         1.106542         1.556983         2.782643
 H         3.364208        -0.563120         2.654878
 H         1.559171        -0.785551         2.473021
 H         2.489506        -2.222579         0.348520
