19
Iteration:  1138
 C        -0.122808        -0.317991        -0.273356
 C         1.317860        -0.125406        -0.013045
 O         2.130781         0.108295        -1.242604
 C         3.237596        -0.185887        -0.375982
 C         3.410866         1.073578         0.446731
 C         2.184238         0.810962         1.334226
 O         1.731205         1.964416         2.010650
 C         2.316657        -0.632683         1.888876
 C         2.327938        -1.169789         0.443138
 H        -0.578105        -0.762781         0.679104
 H        -0.601191         0.645043        -0.576025
 H        -0.225304        -0.972672        -1.155453
 H         4.125484        -0.588268        -0.933354
 H         4.424187         1.137958         0.926487
 H         3.407581         2.056155        -0.097925
 H         2.020347         1.842971         2.907322
 H         3.074850        -0.736185         2.662158
 H         1.405826        -1.226044         2.215131
 H         2.096593        -2.205435         0.151646
