19
Iteration:  1885
 C        -0.080223         0.055146        -0.209152
 C         1.374147        -0.160844        -0.039721
 O         2.088527         0.118607        -1.209612
 C         3.290238        -0.204729        -0.485172
 C         3.378223         1.010495         0.442697
 C         2.093511         0.765391         1.268511
 O         1.505131         1.703703         2.109780
 C         2.546568        -0.651972         1.895364
 C         2.475172        -1.181414         0.486794
 H        -0.667349        -0.253101         0.675935
 H        -0.289600         1.129181        -0.382375
 H        -0.509373        -0.517224        -1.000526
 H         4.107829        -0.561161        -1.139212
 H         4.145286         1.180552         1.227343
 H         3.190649         1.923559        -0.124628
 H         0.809932         2.022125         1.440231
 H         3.601006        -0.667232         2.354698
 H         1.716041        -1.019215         2.539746
 H         2.475656        -2.208471         0.178190
