19
Iteration:  3979
 C        -0.041208        -0.366610         0.079842
 C         1.368617        -0.082934         0.083118
 O         2.075446         0.055384        -1.250201
 C         3.297379        -0.238011        -0.482305
 C         3.344748         1.100094         0.301763
 C         2.134320         0.791322         1.182260
 O         1.545597         1.795924         1.888099
 C         2.444234        -0.419218         1.899334
 C         2.419919        -1.144669         0.559235
 H        -0.602135        -1.026388         0.832144
 H        -0.651880         0.582173        -0.249207
 H        -0.100141        -0.967643        -0.818184
 H         3.983009        -0.604066        -1.221031
 H         4.243733         1.496988         0.888481
 H         3.075188         1.860638        -0.411101
 H         2.136083         2.476491         2.138291
 H         3.280918        -0.292128         2.631352
 H         1.713087        -0.871670         2.621553
 H         2.373856        -2.179807         0.375242
