19
Iteration:  1548
 C        -0.112379        -0.033347        -0.056362
 C         1.413978        -0.144108        -0.015113
 O         2.061920         0.158273        -1.266169
 C         3.327617        -0.209481        -0.522758
 C         3.573321         0.976557         0.561982
 C         2.203500         0.787526         1.224671
 O         1.356746         1.655947         2.023427
 C         2.477061        -0.511109         1.867389
 C         2.387309        -1.156126         0.408314
 H        -0.494404         0.086702         1.012033
 H        -0.191418         0.938722        -0.659061
 H        -0.603710        -0.879938        -0.627595
 H         4.056151        -0.765735        -1.123387
 H         4.439305         0.897104         1.357541
 H         3.718756         1.957526        -0.015603
 H         0.530173         1.712680         1.450053
 H         3.418334        -0.535391         2.462605
 H         1.693722        -0.956290         2.489548
 H         2.493803        -2.225479         0.395240
