19
Iteration:  3386charge 0 multiplicity 1
 C        -0.192428        -0.185955         0.045137
 C         1.331477        -0.134511         0.149585
 O         2.082454         0.091426        -1.210191
 C         3.270090        -0.207461        -0.468922
 C         3.421980         1.083467         0.318802
 C         2.200957         0.778211         1.188048
 O         1.429202         1.778672         1.831376
 C         2.604355        -0.573802         2.000058
 C         2.535817        -1.148914         0.479993
 H        -0.610189        -0.293973         1.048805
 H        -0.582283         0.771766        -0.343468
 H        -0.697804        -0.986512        -0.664538
 H         4.073033        -0.578220        -1.084467
 H         4.361524         1.184562         0.911761
 H         3.142625         1.844701        -0.406437
 H         1.327606         2.436520         1.105497
 H         3.596648        -0.519949         2.524766
 H         1.920323        -1.134371         2.620321
 H         2.222859        -2.203361         0.274661
