19
Iteration:   940
 C        -0.063799        -0.248024        -0.094396
 C         1.403036        -0.041209         0.020150
 O         2.089800         0.165659        -1.234746
 C         3.288439        -0.187703        -0.451766
 C         3.450158         1.047737         0.440832
 C         2.099121         0.743547         1.275935
 O         1.668485         1.926789         1.919964
 C         2.290041        -0.662699         1.889069
 C         2.413730        -1.200484         0.453962
 H        -0.536913        -0.488453         0.860283
 H        -0.519180         0.636852        -0.537831
 H        -0.230837        -1.116024        -0.669091
 H         4.174865        -0.566941        -1.012431
 H         4.281803         1.012815         1.151566
 H         3.612824         1.925203        -0.191452
 H         0.920879         1.685227         2.546493
 H         3.053230        -0.922864         2.582475
 H         1.303425        -1.019762         2.263440
 H         2.253202        -2.249284         0.109011
