19
Iteration:  4871charge 0 multiplicity 1
 C        -0.151542        -0.265666         0.023914
 C         1.377141        -0.180061         0.171804
 O         1.984795         0.021060        -1.254297
 C         3.260538        -0.190010        -0.573154
 C         3.327397         1.047616         0.266804
 C         2.061572         0.760964         1.218072
 O         1.569215         1.916396         1.927129
 C         2.610590        -0.534003         1.953669
 C         2.601096        -1.048085         0.541788
 H        -0.657805        -0.344881         1.038910
 H        -0.649397         0.466519        -0.560624
 H        -0.398904        -1.143906        -0.521381
 H         4.355926        -0.467173        -0.934089
 H         4.380375         0.985839         0.652122
 H         3.373663         1.991745        -0.173218
 H         0.723438         1.963713         1.527744
 H         3.531531        -0.524037         2.646145
 H         1.778533        -1.127958         2.477793
 H         2.662943        -2.106225         0.322113
