19
Iteration:  3402
 C        -0.007639        -0.159997         0.026787
 C         1.439131        -0.120912         0.045004
 O         1.950901         0.102726        -1.206083
 C         3.249140        -0.223167        -0.504050
 C         3.460889         1.118247         0.269802
 C         2.202337         0.751586         1.233295
 O         1.437512         1.684070         1.870056
 C         2.545337        -0.521437         1.954625
 C         2.411425        -1.166488         0.637222
 H        -0.464631        -0.212647         1.042195
 H        -0.450080         0.771823        -0.403742
 H        -0.191396        -0.913544        -0.691553
 H         4.031964        -0.708737        -1.153911
 H         4.453071         1.318820         0.710990
 H         3.179462         1.975833        -0.391938
 H         0.905981         2.260288         1.239214
 H         3.490166        -0.600640         2.479355
 H         1.631494        -0.641372         2.640029
 H         2.594883        -2.202364         0.433076
