19
Iteration:  2063
 C        -0.142861        -0.036792        -0.028205
 C         1.418692        -0.123754        -0.001021
 O         2.154656         0.105489        -1.281802
 C         3.330883        -0.232535        -0.490709
 C         3.332699         1.062014         0.474579
 C         2.116194         0.720979         1.180466
 O         1.479863         1.793741         1.927735
 C         2.507016        -0.627807         1.909254
 C         2.462958        -1.171946         0.488863
 H        -0.594416        -0.591033         0.732955
 H        -0.170004         1.056397         0.215749
 H        -0.571492        -0.011643        -1.000961
 H         4.234052        -0.555452        -1.013060
 H         4.040839         1.313806         1.241149
 H         3.140000         1.841068        -0.262497
 H         1.112113         1.298878         2.703084
 H         3.501678        -0.742167         2.370695
 H         1.671946        -1.101338         2.526200
 H         2.187045        -2.201027         0.219375
