19
Iteration:  3433charge 0 multiplicity 1
 C        -0.168391        -0.228339         0.088801
 C         1.304351        -0.123308        -0.040252
 O         2.069474         0.009279        -1.279202
 C         3.300166        -0.220138        -0.479899
 C         3.510870         1.048656         0.368834
 C         2.058055         0.791391         1.234520
 O         1.510218         1.822169         1.968522
 C         2.530644        -0.496139         1.853804
 C         2.536468        -1.090076         0.535855
 H        -0.481678        -0.341298         1.149883
 H        -0.671340         0.678616        -0.393712
 H        -0.625772        -1.031534        -0.581634
 H         4.034152        -0.750054        -1.113669
 H         4.401293         0.987075         1.000364
 H         3.342950         1.923209        -0.310009
 H         0.914283         2.371268         1.486488
 H         3.413204        -0.384733         2.526820
 H         1.819186        -1.001050         2.495551
 H         2.720715        -2.163028         0.445074
