19
Iteration:  2778charge 0 multiplicity 1
 C        -0.180272        -0.464220         0.093367
 C         1.344060        -0.139428        -0.016626
 O         2.024514         0.125009        -1.357642
 C         3.260962        -0.168873        -0.531750
 C         3.470039         1.006913         0.457360
 C         2.185115         0.801322         1.228056
 O         1.663927         1.910994         1.999559
 C         2.456529        -0.427324         1.911615
 C         2.413470        -1.107735         0.463825
 H        -0.808719        -0.411303         1.048783
 H        -0.638252         0.249663        -0.595615
 H        -0.334774        -1.389621        -0.418449
 H         4.121933        -0.657689        -1.057838
 H         4.360467         0.832628         1.091231
 H         3.614539         1.958214        -0.093544
 H         0.828085         2.055159         1.562561
 H         3.364887        -0.494414         2.491736
 H         1.675356        -0.685339         2.553845
 H         2.414094        -2.254323         0.348374
