19
Iteration:   107
 C        -0.221255        -0.241862        -0.264781
 C         1.362402        -0.188948        -0.007168
 O         2.053928         0.098602        -1.245813
 C         3.289778        -0.182482        -0.304925
 C         3.487449         1.008441         0.608718
 C         2.081157         0.803987         1.304963
 O         1.708142         2.054274         1.923495
 C         2.422834        -0.697580         1.870078
 C         2.419222        -1.191428         0.404220
 H        -0.919760        -0.545890         0.499911
 H        -0.570441         0.763359        -0.561891
 H        -0.424499        -0.822962        -1.173791
 H         4.117642        -0.628392        -0.832160
 H         4.449402         0.991950         1.269301
 H         3.584597         1.925653        -0.035296
 H         0.764251         1.963700         2.044577
 H         3.415069        -0.634032         2.433172
 H         1.794255        -1.259989         2.575985
 H         2.509065        -2.135259         0.080920
