19
Iteration:  4374charge 0 multiplicity 1
 C        -0.157131        -0.318252         0.194257
 C         1.380426        -0.097905         0.099817
 O         1.990804        -0.009287        -1.221995
 C         3.304899        -0.173520        -0.468260
 C         3.469050         1.092663         0.335064
 C         2.112100         0.763414         1.127073
 O         1.373423         1.850960         1.714809
 C         2.618640        -0.506953         1.927940
 C         2.551053        -1.087729         0.506257
 H        -0.749101        -0.727417         1.002678
 H        -0.585127         0.795996         0.113888
 H        -0.389536        -0.811058        -0.793079
 H         4.095103        -0.543685        -1.222649
 H         4.316024         1.154085         0.989923
 H         3.314411         2.156527        -0.016236
 H         1.866325         2.037601         2.557101
 H         3.581510        -0.518256         2.551115
 H         1.898417        -1.125781         2.531050
 H         2.473986        -2.168783         0.198220
