19
Iteration:  2545
 C        -0.144741        -0.049549         0.030789
 C         1.378835        -0.210281         0.075112
 O         1.933907         0.042092        -1.261762
 C         3.293297        -0.184204        -0.449960
 C         3.409976         1.113645         0.393920
 C         2.150152         0.689208         1.171545
 O         1.493920         1.853330         1.802207
 C         2.579286        -0.645294         1.915333
 C         2.568084        -1.132343         0.507354
 H        -0.349705         0.157782         1.091595
 H        -0.386532         0.932632        -0.403812
 H        -0.677270        -0.879359        -0.497018
 H         4.143654        -0.474928        -1.115484
 H         4.271383         1.102673         1.166790
 H         3.470474         2.151987        -0.038261
 H         1.078058         1.384989         2.590967
 H         3.441041        -0.698120         2.534282
 H         1.808741        -1.005844         2.590472
 H         2.538712        -2.196901         0.166523
