19
Iteration:  4747
 C        -0.055305        -0.269274         0.020593
 C         1.381893        -0.271078         0.088429
 O         2.037707         0.080177        -1.231021
 C         3.229512        -0.181545        -0.470681
 C         3.360656         1.066646         0.351873
 C         2.132663         0.794759         1.175085
 O         1.457492         1.913790         1.915566
 C         2.633790        -0.521158         1.923231
 C         2.461330        -1.202932         0.482014
 H        -0.457321        -0.464181         0.986027
 H        -0.392889         0.739584        -0.084498
 H        -0.482860        -1.070455        -0.557297
 H         4.059846        -0.433911        -0.991188
 H         4.116213         1.258128         1.014710
 H         3.273401         2.026692        -0.160867
 H         1.358107         2.541004         1.221115
 H         3.610586        -0.394573         2.339178
 H         1.881217        -0.978263         2.573993
 H         2.379442        -2.338115         0.333955
