19
Iteration:  4724charge 0 multiplicity 1
 C        -0.183467        -0.286660        -0.001454
 C         1.344835        -0.076620         0.097347
 O         2.001677         0.002235        -1.250910
 C         3.315424        -0.192470        -0.493493
 C         3.428534         1.057501         0.359066
 C         2.209395         0.836221         1.125248
 O         1.516707         1.715694         1.940759
 C         2.517713        -0.461710         1.957110
 C         2.544192        -1.064538         0.523261
 H        -0.506364        -0.324580         0.992268
 H        -0.762872         0.573188        -0.349488
 H        -0.418200        -1.308804        -0.350889
 H         4.084380        -0.506452        -1.136971
 H         4.272738         1.221250         0.952204
 H         3.367864         1.972812        -0.295476
 H         0.863956         2.225519         1.374659
 H         3.470189        -0.459629         2.427154
 H         1.686976        -0.685362         2.596385
 H         2.536697        -2.162781         0.422296
