19
Iteration:  3775charge 0 multiplicity 1
 C        -0.114304        -0.379573         0.222121
 C         1.434707        -0.089859         0.086777
 O         2.043214         0.055770        -1.266472
 C         3.271900        -0.161178        -0.491572
 C         3.448839         1.055075         0.362745
 C         2.201140         0.828533         1.098456
 O         1.514539         1.864130         1.788798
 C         2.390885        -0.475916         1.908074
 C         2.469669        -1.130660         0.502119
 H        -0.340907        -0.652250         1.275167
 H        -0.695229         0.537413        -0.060927
 H        -0.505314        -1.099511        -0.469970
 H         4.181379        -0.447605        -0.973797
 H         4.415058         1.120978         0.869230
 H         3.507768         1.924113        -0.225626
 H         0.903091         1.368096         2.345093
 H         3.269484        -0.393366         2.572460
 H         1.419078        -0.863118         2.374539
 H         2.695317        -2.185785         0.135723
