19
Iteration:   100
 C        -0.286836        -0.217816        -0.213793
 C         1.289066        -0.184386        -0.060696
 O         2.155317         0.072524        -1.245089
 C         3.347235        -0.210334        -0.343963
 C         3.522835         1.018715         0.584224
 C         2.071217         0.792949         1.263125
 O         1.670007         2.057752         1.994978
 C         2.420499        -0.650622         1.852780
 C         2.410710        -1.185730         0.432167
 H        -0.870900        -0.560859         0.648606
 H        -0.633942         0.749331        -0.529578
 H        -0.394912        -0.903277        -1.044454
 H         4.183428        -0.471169        -1.022224
 H         4.189741         0.825217         1.369450
 H         3.669522         1.870099        -0.068296
 H         0.673735         1.965141         2.061857
 H         3.407915        -0.649797         2.235304
 H         1.829426        -1.163546         2.561920
 H         2.458236        -2.311618         0.100948
