19
Iteration:  3571charge 0 multiplicity 1
 C        -0.119607        -0.102762         0.130398
 C         1.413426        -0.209399         0.157657
 O         2.009150        -0.028323        -1.270411
 C         3.243873        -0.205736        -0.478494
 C         3.384197         1.101757         0.415096
 C         2.096023         0.864781         1.074345
 O         1.492431         1.796535         1.823965
 C         2.585811        -0.527573         1.864696
 C         2.605635        -1.139177         0.499604
 H        -0.432568        -0.321192         1.076270
 H        -0.429767         0.892229        -0.078961
 H        -0.506339        -0.766255        -0.696298
 H         4.072112        -0.590368        -0.985361
 H         4.259964         1.076772         1.072631
 H         3.206069         1.966184        -0.173088
 H         0.600450         1.524403         2.185192
 H         3.481197        -0.601462         2.514046
 H         1.736105        -0.849975         2.400959
 H         2.484819        -2.227845         0.333706
