19
Iteration:  4030
 C        -0.154661        -0.316823         0.035456
 C         1.360872        -0.135663         0.048656
 O         1.981301         0.132178        -1.253261
 C         3.275569        -0.197494        -0.449959
 C         3.423722         1.086748         0.434514
 C         2.100027         0.745271         1.133137
 O         1.568962         1.866374         1.844642
 C         2.546661        -0.499344         1.953564
 C         2.568739        -1.203924         0.562990
 H        -0.485438        -0.595047         0.987072
 H        -0.615581         0.444642        -0.516088
 H        -0.565700        -1.248731        -0.509185
 H         4.086326        -0.539407        -1.128487
 H         4.262073         1.103894         1.085118
 H         3.478600         2.012974        -0.152912
 H         0.990977         2.371035         1.240872
 H         3.489865        -0.600871         2.531986
 H         1.699266        -0.695083         2.626198
 H         2.412633        -2.195198         0.228003
