19
Iteration:  3951
 C        -0.135177        -0.332130         0.062054
 C         1.335267        -0.149668         0.033740
 O         1.968406         0.066916        -1.242681
 C         3.290630        -0.207358        -0.447586
 C         3.512303         1.107180         0.369736
 C         2.148351         0.850228         1.217575
 O         1.415344         1.915252         1.760800
 C         2.596924        -0.548578         1.907234
 C         2.475524        -1.197813         0.557940
 H        -0.574465        -0.709196         0.968426
 H        -0.668000         0.577508         0.022111
 H        -0.366160        -1.079481        -0.818489
 H         4.038043        -0.594188        -1.193917
 H         4.272803         1.077429         1.129163
 H         3.571777         1.986011        -0.320195
 H         1.791793         2.310914         2.553010
 H         3.513934        -0.411436         2.529989
 H         1.933255        -1.017162         2.626371
 H         2.657087        -2.335571         0.269527
