19
Iteration:  4884
 C        -0.152089        -0.310955         0.021502
 C         1.346337        -0.120072         0.101330
 O         2.003708         0.003580        -1.268575
 C         3.241765        -0.183908        -0.530875
 C         3.395904         1.102342         0.335652
 C         2.143570         0.783146         1.260281
 O         1.543927         1.846516         1.928228
 C         2.624477        -0.478195         1.936002
 C         2.537554        -1.156886         0.514614
 H        -0.648896        -0.223559         0.993012
 H        -0.469587         0.560184        -0.554172
 H        -0.392827        -1.305661        -0.412490
 H         3.899512        -0.591354        -1.356483
 H         4.206254         1.312668         1.054014
 H         3.098191         1.903178        -0.334192
 H         0.838528         2.348026         1.409590
 H         3.688538        -0.327429         2.365854
 H         1.929931        -0.949514         2.693507
 H         2.447427        -2.179090         0.401749
