19
Iteration:  1155
 C        -0.124666        -0.315358        -0.281256
 C         1.429716        -0.089439        -0.012228
 O         1.998424         0.160530        -1.202067
 C         3.247024        -0.200103        -0.489670
 C         3.493614         1.026298         0.452527
 C         2.245918         0.793052         1.282932
 O         1.692249         1.867264         1.986767
 C         2.235121        -0.578421         1.959785
 C         2.392971        -1.129926         0.514672
 H        -0.658794        -0.736884         0.528884
 H        -0.416514         0.653468        -0.680615
 H        -0.179309        -1.047866        -1.100355
 H         4.087213        -0.556305        -1.142421
 H         4.345631         1.029926         1.134654
 H         3.312028         1.881219        -0.194524
 H         1.680342         1.809960         2.942241
 H         3.036200        -1.013323         2.619727
 H         1.238365        -0.545984         2.373117
 H         2.476968        -2.205846         0.317934
