19
Iteration:   867
 C        -0.098139         0.022879        -0.066918
 C         1.417164        -0.140545         0.082672
 O         2.077226         0.179348        -1.182824
 C         3.296211        -0.151110        -0.410715
 C         3.376184         1.031119         0.456488
 C         2.104768         0.660264         1.221884
 O         1.513568         1.827893         1.794760
 C         2.511429        -0.738530         1.926368
 C         2.488361        -1.267443         0.468387
 H        -0.497483        -0.331583         0.978058
 H        -0.296848         1.112242        -0.227878
 H        -0.621193        -0.632380        -0.812292
 H         4.088409        -0.346920        -0.995899
 H         4.292520         1.204903         0.983873
 H         3.107050         1.949089        -0.092108
 H         0.669294         1.845055         1.335407
 H         3.512584        -0.713112         2.507342
 H         1.696589        -1.088572         2.627955
 H         2.456056        -2.338003         0.240754
