19
Iteration:  3088charge 0 multiplicity 1
 C        -0.141902        -0.155609         0.173969
 C         1.414860        -0.168972         0.022485
 O         2.013457         0.058281        -1.244255
 C         3.314548        -0.194236        -0.537378
 C         3.330456         1.082843         0.423795
 C         2.144051         0.707313         1.209204
 O         1.432279         1.855424         1.712285
 C         2.591214        -0.597776         1.953777
 C         2.556142        -1.191121         0.571992
 H        -0.671007        -0.484730         1.137964
 H        -0.526052         0.844244         0.085733
 H        -0.599325        -0.685470        -0.646801
 H         4.131456        -0.292636        -1.248399
 H         4.195297         1.292774         1.039701
 H         3.187942         1.951551        -0.211565
 H         1.955118         2.633112         1.603687
 H         3.481129        -0.618316         2.530640
 H         1.673124        -1.009920         2.466608
 H         2.530671        -2.269336         0.407529
