19
Iteration:  1822charge 0 multiplicity 1
 C        -0.112457        -0.325609         0.092277
 C         1.350515         0.029958        -0.006256
 O         2.134228         0.292820        -1.286048
 C         3.348577        -0.163774        -0.464459
 C         3.489364         0.829764         0.603435
 C         2.035193         0.708256         1.172593
 O         1.495696         1.855369         1.924228
 C         2.374809        -0.677892         1.783681
 C         2.422233        -1.101123         0.363866
 H        -0.346491        -0.890587         1.006943
 H        -0.818448         0.616045        -0.057936
 H        -0.171864        -0.934340        -0.798034
 H         4.284472        -0.519719        -0.965480
 H         4.172291         0.676409         1.443906
 H         3.795497         1.773251         0.034128
 H         1.963722         2.755010         1.952103
 H         3.265323        -0.591564         2.446932
 H         1.614358        -0.963692         2.600908
 H         2.264168        -2.102577         0.050355
