19
Iteration:   180
 C        -0.114452        -0.107242         0.076368
 C         1.414675        -0.033273        -0.040614
 O         2.246091         0.036723        -1.388904
 C         3.340065        -0.201146        -0.442733
 C         3.484863         1.009964         0.603972
 C         2.057160         0.679634         1.203146
 O         1.491236         1.897043         1.868352
 C         2.325314        -0.640360         1.897727
 C         2.367007        -1.132402         0.371899
 H        -0.335949        -0.320123         1.157329
 H        -0.646031         0.857381        -0.203212
 H        -0.567988        -0.918290        -0.575973
 H         4.272940        -0.344766        -0.996537
 H         4.373453         0.847918         1.218481
 H         3.467250         2.060141         0.364425
 H         1.249810         1.461363         2.750154
 H         3.249832        -0.503407         2.436927
 H         1.584434        -1.057760         2.663590
 H         2.070825        -2.144637        -0.066845
