19
Iteration:  1271charge 0 multiplicity 1
 C        -0.175214        -0.189204        -0.079565
 C         1.350445         0.034030         0.037745
 O         2.149313         0.128095        -1.244212
 C         3.347130        -0.217146        -0.417586
 C         3.443165         1.012270         0.486295
 C         2.170000         0.770147         1.229628
 O         1.466828         1.729027         1.946115
 C         2.504134        -0.581803         1.868608
 C         2.370096        -1.162065         0.453416
 H        -0.652220        -0.689229         0.806124
 H        -0.735435         0.713609        -0.418503
 H        -0.365241        -0.867238        -0.990736
 H         4.197541        -0.633672        -0.863874
 H         4.410745         0.859838         1.031635
 H         3.180409         1.868506        -0.171477
 H         1.814152         2.594833         1.804266
 H         3.455070        -0.603528         2.449373
 H         1.711282        -1.013255         2.492380
 H         2.015755        -2.160442         0.165097
