19
Iteration:  2462
 C        -0.053318        -0.452299         0.023881
 C         1.357032        -0.083182         0.034256
 O         1.982566         0.208613        -1.231764
 C         3.261200        -0.201711        -0.518823
 C         3.456435         1.005148         0.427281
 C         2.125594         0.751754         1.222407
 O         1.752356         1.948302         1.897478
 C         2.337100        -0.574280         1.942775
 C         2.405212        -1.067955         0.449581
 H        -0.195776        -1.264705         0.804160
 H        -0.548626         0.515918         0.175020
 H        -0.354042        -0.863934        -0.912282
 H         4.014950        -0.471369        -1.298077
 H         4.278369         0.878233         1.092127
 H         3.481411         1.906854        -0.195198
 H         0.832820         2.052467         2.068169
 H         3.236192        -0.729552         2.577530
 H         1.437491        -1.142336         2.219120
 H         2.399714        -2.130048         0.314593
