19
Iteration:  4090charge 0 multiplicity 1
 C        -0.127736        -0.269134         0.087601
 C         1.411136        -0.181095         0.087610
 O         2.063855         0.030197        -1.230389
 C         3.288737        -0.151996        -0.465748
 C         3.412159         1.062141         0.389696
 C         2.041776         0.731023         1.171504
 O         1.511760         1.772855         1.866579
 C         2.474694        -0.420489         1.855059
 C         2.565544        -1.105480         0.512701
 H        -0.502869        -0.045865         1.135787
 H        -0.584746         0.729269        -0.285620
 H        -0.483984        -1.154116        -0.364744
 H         4.027331        -0.641736        -1.125124
 H         4.316475         0.965595         1.055366
 H         3.353231         2.055516        -0.109584
 H         1.299878         2.552726         1.265451
 H         3.518116        -0.472477         2.300754
 H         1.663900        -0.871532         2.556998
 H         2.394127        -2.174667         0.204539
