19
Iteration:   949charge 0 multiplicity 1
 C        -0.083571        -0.272640        -0.111107
 C         1.393391        -0.101132        -0.055309
 O         2.091654         0.142295        -1.237904
 C         3.298002        -0.151247        -0.404552
 C         3.403303         0.981578         0.519170
 C         2.129698         0.799585         1.246499
 O         1.713272         2.013025         1.926135
 C         2.313185        -0.752667         1.901088
 C         2.332218        -1.125829         0.425477
 H        -0.574365        -0.591003         0.764173
 H        -0.690940         0.457975        -0.634659
 H        -0.159928        -1.129584        -0.793408
 H         4.178280        -0.453622        -1.158524
 H         4.370692         0.888013         1.086224
 H         3.302849         1.994255         0.080435
 H         1.162932         1.745020         2.730111
 H         3.225114        -0.804754         2.435175
 H         1.435496        -1.124189         2.427195
 H         2.448879        -2.207315         0.267099
