19
Iteration:  2465charge 0 multiplicity 1
 C        -0.067214        -0.469397         0.024026
 C         1.348392        -0.069072        -0.003397
 O         1.970408         0.206920        -1.255713
 C         3.241227        -0.235130        -0.507530
 C         3.471472         0.989787         0.434017
 C         2.109704         0.789760         1.212957
 O         1.751843         1.960469         1.925595
 C         2.369784        -0.588181         1.938397
 C         2.438169        -1.064042         0.462287
 H        -0.172615        -1.249296         0.728171
 H        -0.576751         0.531548         0.182905
 H        -0.375088        -0.899042        -0.932394
 H         4.010289        -0.419835        -1.201088
 H         4.343709         0.920035         1.105185
 H         3.537972         1.933476        -0.097462
 H         0.781214         2.037385         2.081732
 H         3.237168        -0.736177         2.581779
 H         1.453578        -1.106157         2.176308
 H         2.278697        -2.143670         0.399342
