19
Iteration:  3660
 C        -0.146036        -0.451771         0.088796
 C         1.330765        -0.207338        -0.020257
 O         2.045563         0.066730        -1.338714
 C         3.280420        -0.095057        -0.442589
 C         3.353638         1.091299         0.446658
 C         2.135575         0.812854         1.255685
 O         1.739462         1.948461         1.849806
 C         2.445094        -0.466217         1.884814
 C         2.390005        -1.146698         0.469920
 H        -0.269681        -0.578132         1.167459
 H        -0.963777         0.261283        -0.166512
 H        -0.446503        -1.374802        -0.595529
 H         4.196104        -0.651987        -0.856055
 H         4.402365         1.171306         0.814216
 H         3.204980         2.115585        -0.167074
 H         1.350903         1.778001         2.725265
 H         3.363649        -0.524660         2.531563
 H         1.612385        -0.847488         2.420916
 H         2.525927        -2.249710         0.213778
