19
Iteration:  1808charge 0 multiplicity 1
 C        -0.100531        -0.365846         0.012048
 C         1.374627        -0.033034        -0.003311
 O         2.156029         0.363396        -1.169947
 C         3.296557        -0.208935        -0.480713
 C         3.499373         0.960764         0.562463
 C         2.125486         0.749544         1.231769
 O         1.519798         1.815071         1.847584
 C         2.334948        -0.630653         1.872654
 C         2.355170        -1.141987         0.343777
 H        -0.269956        -0.756607         1.054458
 H        -0.842105         0.450066        -0.086016
 H        -0.506607        -1.123177        -0.693086
 H         4.047895        -0.532976        -1.197631
 H         4.369897         0.751665         1.277758
 H         3.622083         1.994856         0.228327
 H         2.272232         2.411710         1.822092
 H         3.272942        -0.876457         2.524864
 H         1.429944        -1.168695         2.241804
 H         2.167421        -2.173499        -0.008176
