19
Iteration:  1960
 C        -0.091709        -0.290626         0.021082
 C         1.390939        -0.048731        -0.057183
 O         2.058872         0.270907        -1.233878
 C         3.294268        -0.137412        -0.481506
 C         3.472072         0.955855         0.617057
 C         2.158173         0.770281         1.243784
 O         1.536956         1.765702         1.878469
 C         2.288997        -0.721225         1.882055
 C         2.469781        -1.084528         0.359315
 H        -0.420206        -0.065797         1.070822
 H        -0.591426         0.488416        -0.549208
 H        -0.419095        -1.272872        -0.330922
 H         4.165846        -0.293527        -1.115152
 H         4.382795         0.806371         1.263901
 H         3.710083         1.919548         0.146022
 H         1.938597         2.571442         1.604717
 H         3.087507        -1.086917         2.561227
 H         1.374301        -1.039307         2.323870
 H         2.450628        -2.154280         0.166519
