19
Iteration:   906
 C        -0.085993         0.009456         0.004129
 C         1.391908        -0.079668         0.013928
 O         2.110457         0.174989        -1.256056
 C         3.309654        -0.199871        -0.439548
 C         3.543184         1.012863         0.439500
 C         2.142284         0.739988         1.210763
 O         1.376801         1.722503         1.854002
 C         2.489395        -0.619948         1.910379
 C         2.398141        -1.240273         0.525298
 H        -0.314030        -0.056114         1.033558
 H        -0.580385         0.907122        -0.350395
 H        -0.519748        -0.769040        -0.601549
 H         4.251284        -0.513684        -1.111593
 H         4.341329         0.726632         1.159275
 H         3.705499         1.926753        -0.145481
 H         0.392893         1.710051         1.653815
 H         3.453518        -0.760483         2.325941
 H         1.762551        -0.896337         2.690697
 H         2.454156        -2.325761         0.276499
