19
Iteration:  3659charge 0 multiplicity 1
 C        -0.135580        -0.450790         0.088414
 C         1.322912        -0.213184        -0.018484
 O         2.043837         0.073990        -1.347701
 C         3.277234        -0.095556        -0.443924
 C         3.355160         1.085268         0.444141
 C         2.137348         0.812863         1.254340
 O         1.739181         1.955953         1.849013
 C         2.447262        -0.470398         1.890229
 C         2.388930        -1.146033         0.468057
 H        -0.279042        -0.587039         1.163487
 H        -0.936634         0.259552        -0.160000
 H        -0.466829        -1.407646        -0.586784
 H         4.173707        -0.646468        -0.842419
 H         4.392796         1.156681         0.813592
 H         3.224666         2.124349        -0.106995
 H         1.327875         1.777084         2.742625
 H         3.358305        -0.510794         2.557385
 H         1.611458        -0.851835         2.410282
 H         2.556565        -2.271091         0.255140
