19
Iteration:  3594
 C        -0.138988        -0.227651         0.032690
 C         1.375945        -0.165192         0.051621
 O         2.004120         0.128448        -1.183568
 C         3.298720        -0.196395        -0.494590
 C         3.470443         1.038123         0.297859
 C         2.139514         0.732866         1.214655
 O         1.462757         1.907448         1.816670
 C         2.663990        -0.562862         1.987789
 C         2.411223        -1.178198         0.527775
 H        -0.197601        -0.420864         1.060207
 H        -0.657782         0.700522        -0.174367
 H        -0.542099        -0.996013        -0.662283
 H         4.144955        -0.445588        -1.147614
 H         4.418795         1.096461         0.834893
 H         3.061067         1.901948        -0.288580
 H         0.498054         1.725552         1.809024
 H         3.717822        -0.427730         2.337366
 H         2.086244        -0.934909         2.787044
 H         2.356533        -2.280176         0.372904
