19
Iteration:  2706
 C        -0.119958        -0.084673         0.144741
 C         1.405443        -0.242979         0.122646
 O         2.041107         0.015210        -1.295567
 C         3.319832        -0.161504        -0.493628
 C         3.376229         1.067725         0.399902
 C         2.073792         0.734416         1.136104
 O         1.485876         1.868100         1.796010
 C         2.516906        -0.545304         1.891150
 C         2.514317        -1.191200         0.506676
 H        -0.591963        -0.388927         1.072739
 H        -0.318668         1.054610         0.101527
 H        -0.599829        -0.493054        -0.811208
 H         4.162832        -0.338283        -1.196307
 H         4.303454         0.990040         1.023250
 H         3.567629         2.080838        -0.006930
 H         0.916856         1.607109         2.568532
 H         3.550725        -0.356160         2.308402
 H         1.869357        -1.135228         2.652469
 H         2.671693        -2.297771         0.251904
