19
Iteration:  3759
 C         0.030234        -0.218639         0.222952
 C         1.445437        -0.189482         0.007166
 O         2.042610         0.096171        -1.276752
 C         3.279327        -0.198182        -0.524560
 C         3.391202         1.135256         0.321990
 C         2.096287         0.732131         1.196459
 O         1.487338         1.849671         1.726854
 C         2.459676        -0.557419         1.978485
 C         2.498648        -1.145249         0.548020
 H        -0.153937        -0.459610         1.292626
 H        -0.632819         0.677995         0.095813
 H        -0.436619        -1.030022        -0.441708
 H         4.086867        -0.564371        -1.229738
 H         4.249404         1.205907         1.033772
 H         3.128563         2.078360        -0.280988
 H         0.727508         1.721704         2.259075
 H         3.356507        -0.671896         2.587708
 H         1.567261        -0.852091         2.506430
 H         2.230883        -2.160129         0.428995
