19
Iteration:  1577charge 0 multiplicity 1
 C        -0.074602        -0.004947        -0.156390
 C         1.404227        -0.056773         0.066289
 O         2.095177         0.142115        -1.169889
 C         3.338933        -0.201774        -0.423306
 C         3.344470         1.078978         0.402453
 C         2.135326         0.687677         1.246757
 O         1.528038         1.713515         1.994142
 C         2.415016        -0.672029         1.896961
 C         2.441667        -1.211638         0.447120
 H        -0.549019        -0.265078         0.789046
 H        -0.315783         0.961819        -0.552737
 H        -0.342895        -0.653141        -1.060398
 H         4.125462        -0.676877        -0.936339
 H         4.265815         1.343285         0.962156
 H         3.155707         1.969722        -0.181928
 H         0.870512         2.146333         1.383985
 H         3.442166        -0.578130         2.336233
 H         1.729777        -1.303942         2.462217
 H         2.594267        -2.293988         0.335564
