19
Iteration:  1090charge 0 multiplicity 1
 C        -0.079940        -0.108324        -0.057005
 C         1.405130        -0.049601         0.080763
 O         2.075071         0.187668        -1.207279
 C         3.306224        -0.233121        -0.457227
 C         3.548017         0.958405         0.434657
 C         2.213823         0.783827         1.223817
 O         1.415559         1.818243         1.824705
 C         2.341081        -0.662490         1.906826
 C         2.421719        -1.172447         0.505545
 H        -0.563818        -0.462653         0.858641
 H        -0.309252         0.886483        -0.467177
 H        -0.279507        -0.770424        -0.907102
 H         4.110777        -0.562260        -1.216901
 H         4.490977         0.902648         1.030078
 H         3.622621         1.836198        -0.232719
 H         1.302069         1.527323         2.774779
 H         3.199371        -0.886484         2.534983
 H         1.365832        -0.755790         2.385923
 H         2.341955        -2.220227         0.183663
