19
Iteration:  2165charge 0 multiplicity 1
 C        -0.098205        -0.254194        -0.057438
 C         1.435103        -0.061485         0.002381
 O         2.034834         0.233534        -1.261195
 C         3.273014        -0.230359        -0.494453
 C         3.461271         1.064558         0.490921
 C         2.100887         0.727804         1.224430
 O         1.647751         1.843361         1.954743
 C         2.315775        -0.694293         1.902147
 C         2.481826        -1.138140         0.463792
 H        -0.566970        -0.038308         0.921503
 H        -0.295438         0.476380        -0.753067
 H        -0.281910        -1.320208        -0.303035
 H         3.969363        -0.477125        -1.324433
 H         4.351649         1.282279         1.064283
 H         3.376493         1.925117        -0.146972
 H         0.988593         1.679729         2.654730
 H         3.184640        -0.749715         2.604089
 H         1.351417        -1.068032         2.299904
 H         2.377189        -2.122355        -0.022891
