19
Iteration:  2516
 C        -0.113162        -0.227539        -0.104632
 C         1.397156        -0.099495         0.092623
 O         1.960778         0.163473        -1.221743
 C         3.232086        -0.234737        -0.449656
 C         3.334776         1.086083         0.324968
 C         2.178269         0.723463         1.199802
 O         1.653066         1.882396         1.904465
 C         2.481353        -0.561620         1.971088
 C         2.489372        -1.229748         0.492531
 H        -0.468878        -0.721531         0.870904
 H        -0.600728         0.722757        -0.326403
 H        -0.183810        -0.960725        -0.870900
 H         4.053760        -0.572645        -1.146118
 H         4.234843         1.304122         0.871822
 H         3.224832         1.950453        -0.341219
 H         1.272552         1.546051         2.707858
 H         3.423098        -0.568347         2.601636
 H         1.598399        -0.858124         2.577472
 H         2.632484        -2.268374         0.281166
