19
Iteration:  4418
 C        -0.109143        -0.297296         0.113843
 C         1.368307        -0.172210         0.141778
 O         2.023076         0.065635        -1.273319
 C         3.295377        -0.225430        -0.497523
 C         3.403013         1.182354         0.272969
 C         2.123376         0.767280         1.153120
 O         1.435851         1.760719         1.855797
 C         2.541390        -0.516531         1.966725
 C         2.517598        -1.114811         0.520043
 H        -0.494938        -0.428349         1.098272
 H        -0.640780         0.704205        -0.104006
 H        -0.392432        -1.154940        -0.564038
 H         4.182811        -0.745820        -1.017189
 H         4.278998         1.492165         0.767055
 H         3.330311         1.919347        -0.566708
 H         2.026633         2.526642         2.065010
 H         3.477245        -0.242730         2.565380
 H         1.647752        -0.803929         2.592531
 H         2.560951        -2.197900         0.262432
