19
Iteration:   740charge 0 multiplicity 1
 C        -0.167125         0.024547        -0.015978
 C         1.424442        -0.062344        -0.005597
 O         2.187201         0.167543        -1.219665
 C         3.342518        -0.268109        -0.456448
 C         3.482317         0.978792         0.483863
 C         2.122796         0.726988         1.171037
 O         1.439250         1.676713         1.915612
 C         2.490531        -0.603915         1.853342
 C         2.339345        -1.156212         0.526821
 H        -0.438994        -0.065515         1.025044
 H        -0.529204         1.006809        -0.328751
 H        -0.607627        -0.777495        -0.640052
 H         4.247004        -0.841599        -1.033116
 H         4.313738         0.996565         1.244071
 H         3.361318         2.002383         0.041427
 H         0.725296         2.003062         1.364259
 H         3.452517        -0.545395         2.360889
 H         1.750419        -1.036187         2.478954
 H         2.295223        -2.153410         0.142322
