19
Iteration:   604
 C        -0.210356        -0.289552        -0.070918
 C         1.366074        -0.165342        -0.125519
 O         2.180608         0.185095        -1.249066
 C         3.349684        -0.161567        -0.495993
 C         3.417311         0.990157         0.543662
 C         2.154648         0.779419         1.192302
 O         1.734970         1.890443         2.063815
 C         2.292679        -0.631092         1.881807
 C         2.390149        -1.115878         0.441514
 H        -0.789010        -0.376986         0.864485
 H        -0.601248         0.737988        -0.325673
 H        -0.722854        -0.941625        -0.808355
 H         4.211469        -0.448665        -0.989663
 H         4.191167         0.903013         1.293874
 H         3.559568         1.912308        -0.007898
 H         0.725397         1.966125         1.957055
 H         3.090229        -0.824005         2.597642
 H         1.274337        -0.983273         2.226482
 H         2.313800        -2.243257         0.227564
