19
Iteration:  3311
 C        -0.027071        -0.458252         0.033997
 C         1.396538        -0.117271         0.018316
 O         1.990966         0.151737        -1.190997
 C         3.242933        -0.291977        -0.436788
 C         3.417432         1.074357         0.355950
 C         2.157975         0.853539         1.152534
 O         1.515201         1.883514         1.892800
 C         2.508500        -0.483285         1.948752
 C         2.378040        -1.124264         0.478327
 H        -0.332177        -0.731022         1.000733
 H        -0.691060         0.414376        -0.091441
 H        -0.419294        -1.197869        -0.737116
 H         3.957736        -0.705858        -1.111632
 H         4.346177         0.992969         0.936989
 H         3.393899         1.886987        -0.385956
 H         2.202912         2.572816         1.872727
 H         3.512895        -0.570950         2.468941
 H         1.723159        -0.716699         2.622747
 H         2.313821        -2.160165         0.057031
