19
Iteration:   332
 C        -0.210162        -0.139004        -0.115876
 C         1.352559        -0.003092        -0.019051
 O         2.161461         0.294660        -1.147477
 C         3.294158        -0.263972        -0.389971
 C         3.574296         0.978703         0.541355
 C         2.114013         0.747284         1.194322
 O         1.474425         1.848802         1.778774
 C         2.479237        -0.693400         1.909204
 C         2.366681        -1.198339         0.454263
 H        -0.602088        -0.529038         0.803488
 H        -0.792203         0.698083        -0.480563
 H        -0.373379        -0.922196        -0.868403
 H         4.070247        -0.789215        -0.964116
 H         4.392213         1.003178         1.260911
 H         3.508529         1.850912        -0.088619
 H         1.493203         1.510671         2.702645
 H         3.407171        -0.828121         2.393794
 H         1.718848        -1.218796         2.496652
 H         2.360514        -2.414631         0.220433
