19
Iteration:    90charge 0 multiplicity 1
 C        -0.242982        -0.211008        -0.186634
 C         1.303025        -0.117610        -0.096168
 O         2.240234         0.087101        -1.236668
 C         3.345866        -0.241425        -0.439575
 C         3.449547         0.974748         0.528094
 C         2.098399         0.800134         1.188836
 O         1.625062         1.946551         2.028152
 C         2.428569        -0.577417         1.882268
 C         2.367288        -1.155035         0.498522
 H        -0.517022        -0.521412         0.854705
 H        -0.696402         0.756775        -0.438335
 H        -0.643425        -0.994005        -0.865292
 H         4.260557        -0.519176        -1.018918
 H         4.201778         0.883809         1.272004
 H         3.693654         1.952510         0.136651
 H         0.666817         1.977140         2.161506
 H         3.378205        -0.718576         2.367979
 H         1.571909        -0.908124         2.503297
 H         2.259758        -2.331795         0.330059
