19
Iteration:  2577charge 0 multiplicity 1
 C        -0.063865        -0.147518         0.165641
 C         1.368282        -0.093745         0.111558
 O         2.114139         0.176443        -1.246398
 C         3.305518        -0.309598        -0.521966
 C         3.470553         1.038229         0.319962
 C         2.152178         0.754858         1.155915
 O         1.418130         1.805936         1.839696
 C         2.544353        -0.577612         1.906727
 C         2.426424        -1.130685         0.449036
 H        -0.357638         0.020707         1.226693
 H        -0.601844         0.615303        -0.433766
 H        -0.637634        -1.124044         0.111950
 H         4.225853        -0.605652        -1.088095
 H         4.207938         0.977131         1.148938
 H         3.304589         2.008125        -0.200658
 H         0.605646         1.351785         2.018088
 H         3.533733        -0.605059         2.309490
 H         1.703751        -0.803183         2.578846
 H         2.071008        -2.177425         0.257437
