19
Iteration:   836
 C        -0.118994        -0.255325        -0.076414
 C         1.392360        -0.023474         0.030341
 O         2.041398         0.142866        -1.264928
 C         3.282836        -0.180411        -0.457911
 C         3.562934         0.948737         0.469045
 C         2.146755         0.816683         1.163981
 O         1.581336         1.851205         2.019863
 C         2.326289        -0.574484         1.851246
 C         2.460139        -1.142532         0.440415
 H        -0.447170        -0.659491         0.884224
 H        -0.663984         0.654138        -0.265662
 H        -0.278014        -0.904024        -0.945984
 H         4.107879        -0.599139        -0.975506
 H         4.448089         0.748182         1.069419
 H         3.560377         1.896272        -0.085962
 H         0.820249         1.318994         2.368491
 H         3.128189        -0.554628         2.648268
 H         1.410771        -0.878523         2.343301
 H         2.333833        -2.208235         0.302702
