19
Iteration:  4524charge 0 multiplicity 1
 C        -0.124922        -0.309282         0.131812
 C         1.352815        -0.084125         0.019861
 O         2.074936         0.043898        -1.225559
 C         3.255684        -0.221680        -0.535211
 C         3.414296         1.088011         0.353015
 C         2.068264         0.733582         1.130092
 O         1.530524         1.887816         1.869877
 C         2.567090        -0.487700         1.935104
 C         2.523265        -1.106417         0.526102
 H        -0.287560        -0.745880         1.190989
 H        -0.764287         0.510703        -0.182159
 H        -0.437549        -1.120774        -0.521174
 H         4.048806        -0.535387        -1.289461
 H         4.329617         1.008987         1.086025
 H         3.275889         1.973468        -0.285568
 H         0.544887         1.783984         1.893720
 H         3.591145        -0.249176         2.370679
 H         1.953234        -0.976858         2.723364
 H         2.390504        -2.122109         0.443660
