19
Iteration:  1802
 C        -0.073609        -0.365330        -0.002048
 C         1.374239        -0.082965        -0.044827
 O         2.123516         0.394216        -1.180320
 C         3.212813        -0.172876        -0.461428
 C         3.542928         1.007966         0.547982
 C         2.170023         0.743613         1.286640
 O         1.547519         1.800732         1.817935
 C         2.299118        -0.676614         1.875036
 C         2.381936        -1.192485         0.410143
 H        -0.321517        -0.683704         0.997865
 H        -0.734762         0.524650        -0.232632
 H        -0.486181        -1.068846        -0.725429
 H         4.071192        -0.438911        -1.115891
 H         4.406320         0.948062         1.172556
 H         3.664611         1.980592        -0.012812
 H         2.152190         2.535478         1.934415
 H         3.065146        -0.922242         2.548511
 H         1.454727        -1.184375         2.363408
 H         2.108113        -2.158659         0.002046
