19
Iteration:   196
 C        -0.063428        -0.033522         0.052104
 C         1.411986        -0.107768        -0.009304
 O         2.179023         0.168512        -1.289397
 C         3.368376        -0.211685        -0.429040
 C         3.346194         1.012595         0.511367
 C         2.094607         0.698203         1.245552
 O         1.535942         1.805619         1.780209
 C         2.326699        -0.668965         1.940825
 C         2.444012        -1.179629         0.400391
 H        -0.394787        -0.069301         1.089771
 H        -0.323544         0.972797        -0.266211
 H        -0.543721        -0.747418        -0.605464
 H         4.263618        -0.636662        -0.916756
 H         4.156590         1.229626         1.256521
 H         3.198623         1.845282        -0.221950
 H         1.073643         1.677083         2.636348
 H         3.179623        -0.862068         2.689165
 H         1.410762        -1.123417         2.321725
 H         2.411478        -2.202988         0.082807
