19
Iteration:  3829
 C        -0.099500        -0.496873        -0.126229
 C         1.352005        -0.081545         0.137596
 O         1.940945         0.058294        -1.126511
 C         3.245436        -0.214026        -0.480979
 C         3.327625         1.184049         0.301315
 C         2.144562         0.755265         1.245863
 O         1.729327         1.967776         1.797799
 C         2.575350        -0.536807         1.983239
 C         2.449278        -1.136167         0.557153
 H        -0.904141        -0.680124         0.653301
 H        -0.606358         0.480529        -0.493854
 H        -0.113748        -1.157326        -0.982577
 H         3.968523        -0.445825        -1.240924
 H         4.199268         1.471373         0.974658
 H         3.052040         1.911436        -0.435270
 H         0.976005         1.915694         2.353574
 H         3.489267        -0.507643         2.594900
 H         1.671412        -1.030243         2.465084
 H         2.619289        -2.278360         0.431670
