19
Iteration:  1471
 C        -0.126553        -0.359188        -0.134848
 C         1.410622         0.006868         0.037238
 O         2.064205         0.218114        -1.270323
 C         3.274863        -0.206459        -0.563866
 C         3.469366         0.930484         0.570858
 C         2.077853         0.767542         1.293232
 O         1.521263         1.846974         1.996512
 C         2.386929        -0.569325         1.875224
 C         2.487550        -1.108914         0.436909
 H        -0.697709        -0.808840         0.711485
 H        -0.630115         0.606875        -0.302450
 H        -0.140780        -1.089222        -0.972249
 H         4.003033        -0.678022        -1.151278
 H         4.350622         0.500737         1.126403
 H         3.634015         1.889609         0.043241
 H         2.355982         2.385235         2.098769
 H         3.304037        -0.529247         2.507883
 H         1.605931        -1.009241         2.460577
 H         2.081000        -2.054166         0.156610
