19
Iteration:  3090
 C        -0.119680        -0.169898         0.166859
 C         1.399342        -0.172370         0.011502
 O         2.005652         0.070044        -1.257112
 C         3.327920        -0.211567        -0.528862
 C         3.313504         1.102475         0.413252
 C         2.161141         0.705057         1.218954
 O         1.435431         1.857328         1.725553
 C         2.588318        -0.589803         1.942427
 C         2.544093        -1.200991         0.584494
 H        -0.678647        -0.478467         1.131740
 H        -0.527140         0.839350         0.098277
 H        -0.581058        -0.693384        -0.652352
 H         4.138025        -0.372053        -1.277706
 H         4.247740         1.278623         1.012623
 H         3.159736         1.992754        -0.206248
 H         1.967015         2.648685         1.645611
 H         3.452948        -0.663379         2.605057
 H         1.630939        -0.934871         2.511466
 H         2.559849        -2.240111         0.399938
