19
Iteration:  2168
 C        -0.081990        -0.237682        -0.066612
 C         1.452501        -0.077415        -0.009459
 O         2.003319         0.228034        -1.288388
 C         3.278533        -0.241743        -0.493533
 C         3.463854         1.055687         0.502166
 C         2.068773         0.722496         1.233394
 O         1.639383         1.840682         1.961118
 C         2.351058        -0.666814         1.903902
 C         2.481634        -1.138041         0.464938
 H        -0.636723         0.010558         0.901708
 H        -0.307697         0.582858        -0.737200
 H        -0.341632        -1.249749        -0.301959
 H         4.034441        -0.559871        -1.248058
 H         4.346571         1.343176         1.144741
 H         3.429609         1.980809        -0.159186
 H         1.041228         1.573517         2.720620
 H         3.162938        -0.735704         2.634743
 H         1.446462        -1.126098         2.281990
 H         2.380354        -2.132848         0.051243
