19
Iteration:  3105charge 0 multiplicity 1
 C        -0.045424        -0.263473         0.075693
 C         1.433144        -0.221799         0.067500
 O         1.994952         0.088988        -1.240480
 C         3.235258        -0.223719        -0.431247
 C         3.393491         1.143242         0.253393
 C         2.192021         0.822205         1.193657
 O         1.477073         1.806064         1.864413
 C         2.451907        -0.512670         1.958478
 C         2.452983        -1.176580         0.500228
 H        -0.193579        -0.695435         1.015125
 H        -0.381418         0.809128        -0.007137
 H        -0.487524        -0.932154        -0.711867
 H         4.061809        -0.750040        -0.936741
 H         4.370821         1.351515         0.772717
 H         3.110193         1.977103        -0.434568
 H         2.069766         2.542092         1.991947
 H         3.437348        -0.597049         2.554414
 H         1.564068        -0.777824         2.515416
 H         2.533394        -2.280025         0.315997
