19
Iteration:  3504charge 0 multiplicity 1
 C        -0.153543        -0.433925         0.021050
 C         1.356270        -0.170793         0.089087
 O         2.028318         0.136894        -1.249245
 C         3.208339        -0.162116        -0.577779
 C         3.541841         1.040478         0.447899
 C         2.205233         0.766793         1.193365
 O         1.488569         1.907929         1.812095
 C         2.506856        -0.471927         1.934153
 C         2.385006        -1.095676         0.535050
 H        -0.522353        -0.694744         1.008585
 H        -0.683042         0.430575        -0.293375
 H        -0.448497        -1.210447        -0.716897
 H         4.068979        -0.482959        -1.132253
 H         4.376178         0.753723         1.079246
 H         3.474995         1.987214        -0.022969
 H         2.111292         2.197974         2.468754
 H         3.525080        -0.553289         2.336822
 H         1.809225        -0.856061         2.692959
 H         2.416132        -2.177493         0.324631
