19
Iteration:  3634
 C        -0.098102        -0.458017         0.057593
 C         1.386989        -0.140758         0.059371
 O         1.945545         0.108717        -1.173929
 C         3.283916        -0.148145        -0.572431
 C         3.451904         1.000286         0.410381
 C         2.078278         0.843114         1.193684
 O         1.670555         1.991317         1.851858
 C         2.421770        -0.508101         1.911895
 C         2.539537        -1.132760         0.484332
 H        -0.503016        -0.633140         1.099997
 H        -0.765687         0.302824        -0.319768
 H        -0.340547        -1.379180        -0.591325
 H         3.973955        -0.507605        -1.255814
 H         4.401034         0.980179         0.930306
 H         3.597909         1.847700        -0.184790
 H         0.838942         1.848209         2.317722
 H         3.310118        -0.586953         2.544476
 H         1.547738        -0.993331         2.421822
 H         2.322405        -2.155477         0.123983
