19
Iteration:  1245
 C        -0.020205        -0.044821         0.035562
 C         1.419874        -0.169039        -0.061284
 O         2.038208         0.207345        -1.236115
 C         3.318386        -0.180300        -0.481719
 C         3.531529         1.018620         0.498832
 C         2.106152         0.741362         1.152647
 O         1.393608         1.734724         1.916768
 C         2.392607        -0.588549         1.929401
 C         2.515591        -1.271815         0.485763
 H        -0.455969        -0.252460         0.983165
 H        -0.210759         0.989504        -0.122869
 H        -0.588923        -0.554178        -0.654837
 H         4.040673        -0.858102        -1.091814
 H         4.313183         0.720979         1.193867
 H         3.541718         2.003188         0.028315
 H         0.998064         2.370429         1.339476
 H         3.223720        -0.544744         2.583015
 H         1.508368        -0.914584         2.479685
 H         2.559038        -2.323227         0.134038
