19
Iteration:   193charge 0 multiplicity 1
 C        -0.067351        -0.043386         0.065702
 C         1.425432        -0.086610        -0.005059
 O         2.190845         0.144077        -1.323250
 C         3.385303        -0.201997        -0.430430
 C         3.349334         1.010314         0.535954
 C         2.086328         0.684930         1.235239
 O         1.532021         1.811830         1.793877
 C         2.325071        -0.652240         1.964125
 C         2.435747        -1.177309         0.369827
 H        -0.460674        -0.124211         1.110204
 H        -0.331209         1.015303        -0.264928
 H        -0.610450        -0.811661        -0.572990
 H         4.201101        -0.668932        -0.950709
 H         4.156496         1.200550         1.285311
 H         3.173914         1.846635        -0.154647
 H         1.116738         1.731551         2.631213
 H         3.243002        -0.807386         2.640302
 H         1.362715        -1.145110         2.343690
 H         2.319197        -2.156174         0.039330
