19
Iteration:  3999
 C        -0.089381        -0.358582        -0.008231
 C         1.374355        -0.180098         0.001156
 O         2.002419        -0.014433        -1.249001
 C         3.245525        -0.195482        -0.475745
 C         3.395380         1.121739         0.340310
 C         2.113294         0.838169         1.192764
 O         1.530804         1.905231         1.956996
 C         2.488826        -0.525815         1.931607
 C         2.540717        -1.105838         0.546413
 H        -0.423713        -0.710882         1.012692
 H        -0.658881         0.643099        -0.093024
 H        -0.391406        -1.135031        -0.780537
 H         4.159558        -0.489237        -0.989979
 H         4.342489         1.055264         0.893456
 H         3.371502         1.996430        -0.295248
 H         1.921898         2.733806         1.599778
 H         3.321290        -0.844887         2.653307
 H         1.587715        -0.784232         2.563460
 H         2.415211        -2.069892         0.242680
