19
Iteration:  2967
 C        -0.094680        -0.453636        -0.212024
 C         1.281721        -0.113223         0.061417
 O         1.951588         0.080682        -1.124217
 C         3.176655        -0.213718        -0.451855
 C         3.396614         1.115989         0.302310
 C         2.197396         0.816566         1.218448
 O         1.696152         1.937430         2.028480
 C         2.492633        -0.483953         1.941510
 C         2.479088        -1.212925         0.560354
 H        -0.738193        -0.535796         0.634430
 H        -0.566320         0.239910        -0.925013
 H        -0.059844        -1.444050        -0.748617
 H         3.844925        -0.613833        -1.214804
 H         4.347924         1.312446         0.724566
 H         3.187885         1.949316        -0.374529
 H         1.956743         2.729025         1.513666
 H         3.426324        -0.436396         2.457893
 H         1.669540        -0.826482         2.533016
 H         2.418702        -2.344337         0.378861
