19
Iteration:  4183
 C        -0.130481        -0.330840         0.143230
 C         1.434341        -0.151697         0.072118
 O         2.025660         0.086366        -1.230105
 C         3.293468        -0.180715        -0.533064
 C         3.410604         1.085716         0.378191
 C         2.162305         0.761582         1.179837
 O         1.477726         1.928152         1.713752
 C         2.495866        -0.549446         1.927344
 C         2.508090        -1.157205         0.517353
 H        -0.569805        -0.767456         1.085526
 H        -0.654711         0.615710         0.154545
 H        -0.181686        -1.051553        -0.765669
 H         4.116347        -0.518928        -1.147423
 H         4.297719         1.202749         1.052905
 H         3.337754         2.118935        -0.063472
 H         1.337540         1.774555         2.646838
 H         3.436529        -0.632355         2.619256
 H         1.536968        -0.711492         2.558048
 H         2.205750        -2.208979         0.359501
