19
Iteration:  3892
 C        -0.107282        -0.301284         0.236129
 C         1.401491        -0.136989         0.046410
 O         2.090729         0.064215        -1.194824
 C         3.310964        -0.237369        -0.457300
 C         3.397573         1.096392         0.282961
 C         2.169286         0.843348         1.183663
 O         1.428529         1.849911         1.743025
 C         2.535852        -0.519683         1.876190
 C         2.439976        -1.144189         0.471050
 H        -0.219899        -0.349460         1.354327
 H        -0.486244         0.575088        -0.347332
 H        -0.555714        -1.118235        -0.197589
 H         4.187304        -0.495670        -1.018764
 H         4.273532         1.346044         0.979054
 H         3.414901         1.952187        -0.387046
 H         1.055916         1.595238         2.572178
 H         3.293579        -0.558945         2.612321
 H         1.563716        -0.841175         2.301100
 H         2.397179        -2.153995         0.154147
