19
Iteration:  1305
 C        -0.170306        -0.369515        -0.249017
 C         1.423027        -0.148210        -0.020496
 O         2.043293         0.194955        -1.207983
 C         3.284111        -0.126305        -0.456874
 C         3.383316         0.989426         0.433219
 C         2.124751         0.765841         1.266192
 O         1.671139         1.886860         2.005396
 C         2.350783        -0.549317         1.914038
 C         2.431713        -1.172165         0.521059
 H        -0.656954        -0.680084         0.707709
 H        -0.470414         0.661207        -0.602693
 H        -0.285371        -1.120012        -1.116270
 H         4.016028        -0.403975        -1.116681
 H         4.398126         0.898536         0.917341
 H         3.357063         2.039727         0.131686
 H         2.380356         2.197797         2.591659
 H         3.190368        -0.663649         2.668033
 H         1.431686        -0.911935         2.391702
 H         2.284002        -2.220342         0.246487
