19
Iteration:  2992
 C        -0.167637        -0.446689        -0.100674
 C         1.220240        -0.224249        -0.040932
 O         2.043919        -0.007129        -1.303873
 C         3.279286        -0.146404        -0.500613
 C         3.312575         1.065097         0.357582
 C         2.125693         0.811467         1.234632
 O         1.803995         1.946853         2.073484
 C         2.469756        -0.428103         2.016767
 C         2.481415        -1.067007         0.519540
 H        -0.741136        -0.519508         0.895963
 H        -0.681573         0.328263        -0.627741
 H        -0.360201        -1.327921        -0.680424
 H         4.011247        -0.566597        -1.161329
 H         4.149874         0.937779         1.110017
 H         3.472155         2.069231        -0.087172
 H         1.386236         2.544199         1.475244
 H         3.462055        -0.538689         2.413339
 H         1.600188        -0.858388         2.594261
 H         2.491119        -2.093269         0.396535
