19
Iteration:  2459
 C        -0.041745        -0.429107         0.032428
 C         1.376243        -0.101485         0.075020
 O         1.999636         0.210901        -1.203366
 C         3.279558        -0.154347        -0.532610
 C         3.432270         1.017232         0.413817
 C         2.139661         0.718942         1.234091
 O         1.759630         1.934010         1.862187
 C         2.307951        -0.562633         1.937138
 C         2.378395        -1.085156         0.438309
 H        -0.263291        -1.191732         0.861001
 H        -0.609803         0.461472         0.194700
 H        -0.338573        -0.847947        -0.961128
 H         4.010362        -0.549157        -1.344407
 H         4.282958         0.846611         1.114106
 H         3.412901         1.902073        -0.265841
 H         0.788289         2.034655         2.062068
 H         3.190880        -0.711729         2.577236
 H         1.420843        -1.135535         2.344126
 H         2.503174        -2.176113         0.172132
