19
Iteration:   863
 C        -0.104051        -0.024818        -0.062916
 C         1.410246        -0.168006         0.024579
 O         2.083828         0.202322        -1.155186
 C         3.260026        -0.130195        -0.448010
 C         3.383383         1.033917         0.455972
 C         2.129690         0.685851         1.170879
 O         1.540230         1.804676         1.819899
 C         2.497971        -0.720693         1.976072
 C         2.485310        -1.254485         0.498032
 H        -0.469419        -0.276645         0.938528
 H        -0.299305         1.061505        -0.235907
 H        -0.593472        -0.538240        -0.885993
 H         4.161685        -0.435276        -1.099069
 H         4.317806         1.144457         1.039913
 H         3.141364         1.898103        -0.173149
 H         0.635774         1.808425         1.432603
 H         3.336596        -0.695113         2.634625
 H         1.632084        -1.032233         2.599963
 H         2.413874        -2.329219         0.213338
