19
Iteration:  2809
 C        -0.084507        -0.468098        -0.082141
 C         1.383276        -0.114601         0.057465
 O         1.956580         0.091312        -1.227434
 C         3.256879        -0.213145        -0.424306
 C         3.276639         1.141864         0.357853
 C         2.154054         0.802300         1.237482
 O         1.788083         1.907110         2.015159
 C         2.423481        -0.502744         1.870243
 C         2.449544        -1.137900         0.501801
 H        -0.588878        -0.808877         0.902439
 H        -0.534426         0.420169        -0.467356
 H        -0.094277        -1.225825        -0.843922
 H         4.040106        -0.604608        -1.062919
 H         4.198095         1.286969         0.892520
 H         2.973445         1.705917        -0.490880
 H         1.790743         2.662944         1.358027
 H         3.170036        -0.654757         2.662491
 H         1.496281        -0.903021         2.309413
 H         2.332933        -2.163068         0.398875
