19
Iteration:   324
 C        -0.176007        -0.186992        -0.121190
 C         1.298503        -0.039534         0.007876
 O         2.174717         0.237104        -1.186729
 C         3.269639        -0.214567        -0.370789
 C         3.501177         0.936833         0.573992
 C         2.160240         0.753721         1.247076
 O         1.511425         1.895940         1.806714
 C         2.436431        -0.664639         1.858463
 C         2.401882        -1.189595         0.385196
 H        -0.552396        -0.568339         0.863371
 H        -0.628649         0.835214        -0.357983
 H        -0.309837        -1.003583        -0.889671
 H         4.033266        -0.583490        -1.024934
 H         4.382622         0.727477         1.202983
 H         3.718224         1.860483         0.021581
 H         1.305227         1.730801         2.742756
 H         3.417700        -0.769993         2.379689
 H         1.584356        -1.055832         2.461752
 H         2.375194        -2.253842         0.180253
