19
Iteration:   577
 C        -0.032479        -0.030562        -0.067675
 C         1.451014        -0.031128        -0.008859
 O         2.078618         0.168298        -1.200204
 C         3.267810        -0.181481        -0.422005
 C         3.370637         1.012811         0.532473
 C         2.135897         0.671976         1.193240
 O         1.565639         1.840746         1.870943
 C         2.419677        -0.747683         1.916726
 C         2.427788        -1.236905         0.427958
 H        -0.689398         0.020249         0.820629
 H        -0.505424         0.911267        -0.467898
 H        -0.300997        -0.872668        -0.731608
 H         4.244150        -0.557105        -0.948311
 H         4.308693         1.059487         1.151930
 H         3.280200         1.919865        -0.109240
 H         0.606956         1.632367         2.108175
 H         3.342532        -0.644037         2.542858
 H         1.542197        -1.096391         2.453779
 H         2.392365        -2.222273         0.058300
