19
Iteration:  4892charge 0 multiplicity 1
 C        -0.104601        -0.330712         0.030501
 C         1.391394        -0.166188         0.037189
 O         1.967029         0.043245        -1.201023
 C         3.217741        -0.251582        -0.476898
 C         3.372055         1.156435         0.366095
 C         2.190448         0.789681         1.109232
 O         1.521369         1.815275         1.965250
 C         2.644242        -0.460667         1.925699
 C         2.442118        -1.156784         0.530218
 H        -0.631555        -0.146851         1.019084
 H        -0.524037         0.478756        -0.546430
 H        -0.401784        -1.250637        -0.399179
 H         4.121508        -0.378765        -1.207181
 H         4.311270         1.452723         0.880945
 H         3.296652         2.005497        -0.258829
 H         1.134708         2.355057         1.212657
 H         3.700602        -0.401444         2.292665
 H         1.926533        -0.791801         2.710046
 H         2.414247        -2.249952         0.284542
