19
Iteration:  3222charge 0 multiplicity 1
 C        -0.182770        -0.251183         0.209613
 C         1.356290        -0.064238         0.017527
 O         2.070457        -0.014698        -1.309198
 C         3.311198        -0.252310        -0.413947
 C         3.543616         1.082822         0.403716
 C         2.159281         0.863623         1.125114
 O         1.386733         1.738585         1.943465
 C         2.545425        -0.460402         1.790823
 C         2.478548        -1.090537         0.493285
 H        -0.514682        -0.378074         1.299203
 H        -0.510002         0.712977        -0.247082
 H        -0.674529        -1.012784        -0.464417
 H         4.285589        -0.555498        -0.894321
 H         4.438495         0.872496         1.044254
 H         3.556298         1.864301        -0.344293
 H         0.824190         2.330224         1.445521
 H         3.569052        -0.508017         2.151587
 H         1.754707        -0.880650         2.452136
 H         2.420992        -2.185674         0.368220
