19
Iteration:  4282charge 0 multiplicity 1
 C        -0.113614        -0.348268         0.034244
 C         1.390622        -0.127334         0.055191
 O         2.018726         0.049042        -1.171803
 C         3.266961        -0.179839        -0.482523
 C         3.343889         1.080576         0.295147
 C         2.062010         0.788127         1.121317
 O         1.513726         1.837296         1.915649
 C         2.535290        -0.469581         1.911901
 C         2.541187        -1.149211         0.549954
 H        -0.462741        -0.274384         1.146375
 H        -0.567610         0.493647        -0.524614
 H        -0.370597        -1.387133        -0.343563
 H         3.976257        -0.557878        -1.173018
 H         4.420176         1.103746         0.764557
 H         3.309575         2.020651        -0.268161
 H         2.041871         2.633896         1.682489
 H         3.377074        -0.468233         2.673371
 H         1.836339        -0.944959         2.653325
 H         2.602464        -2.158580         0.139646
