19
Iteration:  1159charge 0 multiplicity 1
 C        -0.146010        -0.310545        -0.264553
 C         1.405056        -0.057991         0.002945
 O         2.006623         0.190184        -1.234545
 C         3.265585        -0.171660        -0.478595
 C         3.511709         0.976028         0.430942
 C         2.215190         0.779096         1.258771
 O         1.678276         1.847139         1.971674
 C         2.256803        -0.560262         1.992132
 C         2.415367        -1.159257         0.540910
 H        -0.691093        -0.676771         0.612428
 H        -0.435873         0.601158        -0.742654
 H        -0.171921        -0.975482        -1.087925
 H         4.104062        -0.481229        -1.198391
 H         4.352660         1.089480         1.146907
 H         3.546518         1.878651        -0.260137
 H         1.603805         1.689052         2.939370
 H         3.001750        -0.851130         2.651143
 H         1.235210        -0.773433         2.422637
 H         2.420988        -2.255764         0.405596
