19
Iteration:  3232
 C        -0.168927        -0.151662         0.153693
 C         1.390839        -0.078752         0.067058
 O         2.091217         0.005174        -1.315842
 C         3.380937        -0.236367        -0.451558
 C         3.416993         1.024547         0.319385
 C         2.122546         0.807607         1.133865
 O         1.412057         1.681166         1.928675
 C         2.562942        -0.452573         1.907994
 C         2.440712        -1.047633         0.501369
 H        -0.250065        -0.426420         1.269131
 H        -0.808338         0.734285         0.033649
 H        -0.386351        -1.067793        -0.410905
 H         4.189360        -0.739464        -1.056308
 H         4.299888         1.210206         0.965887
 H         3.520786         1.898397        -0.308206
 H         0.979863         2.245878         1.248454
 H         3.459713        -0.390230         2.488246
 H         1.786660        -0.936050         2.567842
 H         2.408119        -2.119040         0.285654
