19
Iteration:  1513charge 0 multiplicity 1
 C        -0.114902        -0.202732         0.026551
 C         1.375691        -0.078193         0.049740
 O         2.163542         0.285094        -1.242938
 C         3.346269        -0.220681        -0.452522
 C         3.452452         1.059981         0.504545
 C         2.182123         0.693664         1.261443
 O         1.545003         1.756059         1.869619
 C         2.339942        -0.703421         1.906191
 C         2.396348        -1.135889         0.366211
 H        -0.625769        -0.180843         1.035317
 H        -0.574360         0.675546        -0.511048
 H        -0.541519        -1.180070        -0.487802
 H         4.170220        -0.493226        -1.038785
 H         4.291816         1.289139         1.294307
 H         3.094710         2.005414         0.064954
 H         1.159396         2.299014         1.113113
 H         3.204370        -0.911955         2.591353
 H         1.429479        -1.137874         2.317458
 H         2.336273        -2.196175         0.123044
