19
Iteration:  2627
 C        -0.179571        -0.444129        -0.034694
 C         1.316759        -0.196919         0.006269
 O         1.948854         0.118029        -1.271397
 C         3.216570        -0.114704        -0.500227
 C         3.473021         0.995839         0.472609
 C         2.053801         0.759168         1.205546
 O         1.800487         2.057829         1.883793
 C         2.484824        -0.593511         1.982557
 C         2.507889        -1.093909         0.523982
 H        -0.676140        -0.978090         0.728388
 H        -0.699485         0.526843        -0.281848
 H        -0.362093        -1.100314        -0.882254
 H         3.944779        -0.269014        -1.289216
 H         4.314545         0.748296         1.146702
 H         3.679440         1.950369        -0.007266
 H         0.849171         2.053198         2.172115
 H         3.442440        -0.483406         2.584216
 H         1.616598        -1.071590         2.508312
 H         2.434594        -2.143288         0.122422
