19
Iteration:  1892charge 0 multiplicity 1
 C        -0.143426         0.060985        -0.217302
 C         1.424406        -0.169273        -0.020535
 O         2.101292         0.065077        -1.239247
 C         3.303309        -0.139237        -0.477624
 C         3.376231         0.975046         0.497761
 C         2.158547         0.728836         1.267634
 O         1.477560         1.714373         2.119112
 C         2.534548        -0.587968         1.876357
 C         2.410861        -1.179926         0.481787
 H        -0.641535        -0.146053         0.751539
 H        -0.274380         1.082954        -0.471064
 H        -0.498516        -0.626613        -1.054975
 H         4.095492        -0.157661        -1.223593
 H         4.294219         1.028404         1.117132
 H         3.341180         1.859748        -0.134281
 H         0.722783         2.028944         1.550612
 H         3.555756        -0.744817         2.111880
 H         2.024467        -1.027295         2.695539
 H         2.352449        -2.260213         0.167897
