19
Iteration:   371charge 0 multiplicity 1
 C        -0.053132         0.087081        -0.106669
 C         1.421401        -0.069050         0.028939
 O         2.075771         0.060643        -1.275334
 C         3.306627        -0.225661        -0.459512
 C         3.497324         1.008689         0.545585
 C         2.139748         0.747396         1.210738
 O         1.328576         1.710707         1.933760
 C         2.402571        -0.689616         1.853673
 C         2.498535        -1.178028         0.487391
 H        -0.539820        -0.011715         0.909280
 H        -0.262815         1.143751        -0.453308
 H        -0.412956        -0.778398        -0.698698
 H         4.135869        -0.523740        -1.167238
 H         4.385708         0.955118         1.234200
 H         3.586079         2.005500         0.036242
 H         1.868560         2.340123         2.408435
 H         3.285813        -0.662772         2.582285
 H         1.448102        -1.085166         2.249580
 H         2.476662        -2.125546         0.112860
