19
Iteration:  3904
 C        -0.068856        -0.274242         0.196610
 C         1.414168        -0.211099         0.112763
 O         2.012757         0.171694        -1.217776
 C         3.314515        -0.217492        -0.468079
 C         3.455786         1.100533         0.352338
 C         2.212233         0.780218         1.133961
 O         1.393716         1.868692         1.666248
 C         2.435013        -0.535117         1.889090
 C         2.549734        -1.171149         0.515610
 H        -0.423294        -0.200266         1.293984
 H        -0.599375         0.694637         0.006668
 H        -0.512882        -1.107442        -0.193783
 H         4.034302        -0.712461        -1.081644
 H         4.488074         1.343676         0.794906
 H         3.002529         1.784560        -0.339232
 H         1.263650         1.533884         2.612048
 H         3.322672        -0.652862         2.424603
 H         1.610280        -0.925455         2.528065
 H         2.565593        -2.279271         0.449375
