19
Iteration:   858charge 0 multiplicity 1
 C        -0.094414        -0.066298        -0.053735
 C         1.391307        -0.190119        -0.018920
 O         2.081983         0.218495        -1.149862
 C         3.267306        -0.151059        -0.494176
 C         3.403866         1.047316         0.454594
 C         2.152264         0.704237         1.167117
 O         1.557393         1.774659         1.840670
 C         2.461490        -0.676958         1.995845
 C         2.473985        -1.224748         0.524073
 H        -0.575056        -0.281887         0.918473
 H        -0.306310         0.987742        -0.236400
 H        -0.558729        -0.538883        -0.939400
 H         4.069666        -0.477212        -1.123796
 H         4.280934         1.087043         1.097226
 H         3.286770         1.918068        -0.218100
 H         0.626881         1.835751         1.616641
 H         3.320336        -0.700097         2.740785
 H         1.544136        -1.003201         2.488457
 H         2.425886        -2.249672         0.181107
