19
Iteration:  3849charge 0 multiplicity 1
 C        -0.161027        -0.398712        -0.075842
 C         1.330699        -0.295701         0.063130
 O         1.979562         0.034372        -1.186433
 C         3.244348        -0.157464        -0.465227
 C         3.360879         1.132648         0.292236
 C         2.147145         0.852947         1.197273
 O         1.650670         1.985918         1.912319
 C         2.553223        -0.495748         1.984401
 C         2.558155        -1.149666         0.543395
 H        -0.632705        -0.507821         1.001572
 H        -0.621863         0.520836        -0.628526
 H        -0.340210        -1.162667        -0.764359
 H         3.971742        -0.548364        -1.140562
 H         4.450429         1.158312         0.760302
 H         3.367460         2.005836        -0.363075
 H         0.770417         1.712216         2.202547
 H         3.487464        -0.573470         2.445204
 H         1.610363        -0.778466         2.492785
 H         2.463283        -2.226813         0.384520
