19
Iteration:  1270
 C        -0.173166        -0.182605        -0.078436
 C         1.343900         0.026957         0.035425
 O         2.151705         0.126475        -1.243723
 C         3.344531        -0.209868        -0.423014
 C         3.446940         1.002644         0.488058
 C         2.168270         0.770305         1.232012
 O         1.462170         1.720757         1.942004
 C         2.507408        -0.580174         1.871090
 C         2.371991        -1.152997         0.455912
 H        -0.655462        -0.652252         0.795195
 H        -0.719018         0.704883        -0.363976
 H        -0.371371        -0.851567        -0.948508
 H         4.241989        -0.605509        -0.864843
 H         4.408477         0.844378         1.027295
 H         3.219196         1.867151        -0.179851
 H         1.789129         2.607885         1.770482
 H         3.427913        -0.598126         2.423036
 H         1.709999        -1.023897         2.470480
 H         2.015779        -2.162261         0.202607
