19
Iteration:  1871charge 0 multiplicity 1
 C        -0.130787        -0.007681        -0.154132
 C         1.421845        -0.095115         0.077382
 O         2.080246         0.208855        -1.228984
 C         3.290215        -0.251209        -0.400498
 C         3.385133         1.154725         0.405576
 C         2.127604         0.623618         1.193816
 O         1.530095         1.671007         2.021591
 C         2.438921        -0.652426         1.913979
 C         2.494577        -1.204003         0.449038
 H        -0.669270        -0.370449         0.740369
 H        -0.254481         1.019958        -0.217568
 H        -0.331575        -0.495616        -1.158298
 H         4.122091        -0.615105        -0.996027
 H         4.375838         1.189937         0.885149
 H         3.339262         1.945209        -0.304740
 H         0.999197         2.376797         1.713762
 H         3.154975        -0.700036         2.703401
 H         1.648125        -1.159595         2.351256
 H         2.528425        -2.311051         0.259934
