19
Iteration:  3693
 C        -0.083225        -0.288154        -0.007528
 C         1.424655        -0.157435         0.127087
 O         1.975064         0.092854        -1.240762
 C         3.213338        -0.233085        -0.523187
 C         3.396124         1.084608         0.260464
 C         2.133556         0.836242         1.221359
 O         1.548463         1.890294         1.919640
 C         2.558160        -0.477938         1.926724
 C         2.484647        -1.161865         0.563389
 H        -0.516011        -0.710745         0.923584
 H        -0.484962         0.692059        -0.390638
 H        -0.089432        -1.167156        -0.782933
 H         4.121479        -0.749940        -1.033160
 H         4.383736         1.031767         0.756746
 H         3.213925         1.839775        -0.605432
 H         0.855286         1.571357         2.581284
 H         3.456248        -0.583504         2.580106
 H         1.729246        -0.861752         2.491935
 H         2.432501        -2.231974         0.270221
