19
Iteration:  1050
 C        -0.084570         0.048019         0.123666
 C         1.407992        -0.219063        -0.030946
 O         2.133178         0.207349        -1.228765
 C         3.351784        -0.171260        -0.383394
 C         3.397855         0.954786         0.553575
 C         2.099840         0.679070         1.106045
 O         1.486013         1.841668         1.706110
 C         2.451735        -0.639093         1.855596
 C         2.409409        -1.239942         0.445092
 H        -0.483323        -0.002688         1.156507
 H        -0.412924         1.055791        -0.109144
 H        -0.737211        -0.597385        -0.430673
 H         4.286629        -0.595678        -0.825598
 H         4.095853         0.885432         1.384650
 H         3.410330         1.995621         0.211270
 H         0.794526         1.422706         2.223883
 H         3.406653        -0.758061         2.304069
 H         1.734964        -1.047048         2.602212
 H         2.598725        -2.312022         0.266141
