19
Iteration:  3737charge 0 multiplicity 1
 C        -0.127493        -0.171102         0.169072
 C         1.349213        -0.184391         0.097298
 O         2.041122         0.054080        -1.186807
 C         3.283157        -0.191198        -0.395543
 C         3.370410         1.078861         0.367413
 C         2.105098         0.767926         1.207755
 O         1.467743         1.918899         1.695048
 C         2.615972        -0.606001         1.887111
 C         2.583902        -1.208609         0.440602
 H        -0.604102        -0.242380         1.166672
 H        -0.442633         0.886090        -0.183937
 H        -0.534736        -0.842008        -0.692304
 H         4.096298        -0.380501        -1.164263
 H         4.270868         1.180604         1.005967
 H         3.114665         1.924617        -0.380880
 H         0.587620         1.572130         2.074018
 H         3.615024        -0.469747         2.343606
 H         1.919339        -0.978546         2.615077
 H         2.680825        -2.266141         0.268778
