19
Iteration:  3249
 C        -0.037590        -0.192468         0.108168
 C         1.446355        -0.134025         0.030163
 O         2.059546         0.096559        -1.230168
 C         3.223617        -0.247536        -0.520582
 C         3.359410         1.149674         0.305135
 C         2.163816         0.744310         1.151433
 O         1.438986         1.739208         1.877129
 C         2.498896        -0.503729         2.011317
 C         2.495281        -1.234142         0.561806
 H        -0.278596        -0.445634         1.130649
 H        -0.220262         0.912440        -0.122305
 H        -0.508159        -0.801329        -0.659675
 H         4.049452        -0.489578        -1.160378
 H         4.338429         1.339801         0.774461
 H         3.036243         1.936763        -0.423433
 H         1.279422         2.503490         1.300663
 H         3.504921        -0.472392         2.495452
 H         1.646410        -0.770933         2.648270
 H         2.382452        -2.301539         0.371695
