19
Iteration:   223
 C        -0.126240        -0.049622        -0.143336
 C         1.383438        -0.148648         0.105618
 O         2.035172         0.208197        -1.138314
 C         3.316967        -0.186044        -0.505132
 C         3.566338         1.026087         0.475096
 C         2.160939         0.727185         1.228551
 O         1.490717         1.784522         1.835012
 C         2.419928        -0.611722         1.958871
 C         2.459089        -1.261153         0.458914
 H        -0.765934        -0.086822         0.743972
 H        -0.232477         0.987810        -0.535654
 H        -0.364707        -0.653785        -1.035372
 H         4.009677        -0.654848        -1.232871
 H         4.388655         1.036248         1.174078
 H         3.600701         1.919068        -0.128928
 H         0.571128         1.470699         2.065422
 H         3.222227        -0.730169         2.647151
 H         1.573074        -0.960698         2.575618
 H         2.428214        -2.382991         0.113019
