19
Iteration:  2457
 C        -0.038720        -0.418074         0.040688
 C         1.389337        -0.111484         0.095102
 O         2.010747         0.213277        -1.185683
 C         3.288448        -0.126565        -0.542923
 C         3.418959         1.022343         0.404235
 C         2.143937         0.707618         1.239380
 O         1.762511         1.925423         1.839456
 C         2.293757        -0.564002         1.932546
 C         2.372590        -1.107499         0.432735
 H        -0.311704        -1.098414         0.851763
 H        -0.695623         0.454351         0.217700
 H        -0.317629        -0.837104        -0.974443
 H         3.976001        -0.572537        -1.301698
 H         4.295319         0.857920         1.111007
 H         3.373053         1.905099        -0.259196
 H         0.785881         1.995467         2.048240
 H         3.153660        -0.696819         2.582625
 H         1.433238        -1.083223         2.428251
 H         2.531391        -2.180355         0.087317
