19
Iteration:  1549
 C        -0.121452        -0.030371        -0.059189
 C         1.408349        -0.146970        -0.014315
 O         2.063826         0.155544        -1.265794
 C         3.328899        -0.200455        -0.527641
 C         3.569315         0.978387         0.568184
 C         2.206114         0.785769         1.220206
 O         1.360614         1.651055         2.023133
 C         2.488298        -0.515974         1.877121
 C         2.386327        -1.151778         0.415241
 H        -0.498633         0.072640         0.992452
 H        -0.197403         0.916381        -0.677838
 H        -0.585066        -0.819100        -0.637221
 H         4.062870        -0.790201        -1.140270
 H         4.422345         0.934190         1.318390
 H         3.741505         1.926911        -0.043706
 H         0.521166         1.709652         1.449295
 H         3.401172        -0.541993         2.481893
 H         1.654854        -0.932841         2.474635
 H         2.500562        -2.228397         0.385605
