19
Iteration:  3787charge 0 multiplicity 1
 C        -0.183600        -0.413618         0.125168
 C         1.338815        -0.176631         0.024678
 O         2.009076         0.063933        -1.211251
 C         3.321301        -0.236533        -0.489540
 C         3.540453         1.084144         0.384677
 C         2.126861         0.865517         1.154774
 O         1.539086         1.925028         1.834198
 C         2.493574        -0.437273         1.834288
 C         2.531174        -1.069303         0.482160
 H        -0.377185        -0.787306         1.131114
 H        -0.852717         0.426118         0.000932
 H        -0.412410        -1.328149        -0.473861
 H         4.064626        -0.695647        -1.156955
 H         4.268577         0.972136         1.155595
 H         3.529104         1.978454        -0.199944
 H         0.947154         1.585259         2.507002
 H         3.283816        -0.595872         2.631677
 H         1.556482        -0.811937         2.347949
 H         2.211154        -2.171432         0.356890
