19
Iteration:  2918
 C        -0.093328        -0.216985         0.174881
 C         1.393684        -0.163329         0.059196
 O         2.032056         0.039725        -1.216018
 C         3.340196        -0.128975        -0.586726
 C         3.403033         1.025163         0.414831
 C         2.145597         0.813183         1.144651
 O         1.379575         1.856291         1.729867
 C         2.521066        -0.565997         1.922814
 C         2.470896        -1.155755         0.508836
 H        -0.255544        -0.283407         1.327413
 H        -0.667099         0.716615        -0.037664
 H        -0.618154        -1.076047        -0.238885
 H         4.169343        -0.541068        -1.198022
 H         4.285228         0.919716         1.114438
 H         3.616544         2.024907        -0.020400
 H         1.973909         2.329083         2.372733
 H         3.522784        -0.715655         2.451939
 H         1.640177        -1.028958         2.481748
 H         2.568856        -2.191001         0.321770
