19
Iteration:  3417
 C        -0.061164        -0.169434         0.038880
 C         1.455764        -0.151500         0.139244
 O         2.012879         0.035533        -1.215742
 C         3.282694        -0.225495        -0.519914
 C         3.414015         1.056646         0.303684
 C         2.169043         0.833376         1.061603
 O         1.450257         1.739450         1.997230
 C         2.499304        -0.426647         1.926840
 C         2.486034        -1.185407         0.496775
 H        -0.533352        -0.395118         1.013127
 H        -0.275695         0.799743        -0.340780
 H        -0.469977        -1.033623        -0.509117
 H         4.122278        -0.552129        -1.190166
 H         4.227994         1.030043         1.051766
 H         3.561854         1.944485        -0.295867
 H         0.767824         2.169150         1.445494
 H         3.409879        -0.447912         2.534991
 H         1.611273        -0.667326         2.600770
 H         2.227292        -2.252297         0.296907
