19
Iteration:  3401charge 0 multiplicity 1
 C        -0.020114        -0.157444         0.028993
 C         1.442162        -0.122437         0.044640
 O         1.957140         0.104812        -1.207329
 C         3.241506        -0.227851        -0.501925
 C         3.464938         1.122028         0.273079
 C         2.199320         0.749217         1.239658
 O         1.439052         1.683589         1.862309
 C         2.547702        -0.524429         1.960977
 C         2.410664        -1.160853         0.636482
 H        -0.468935        -0.228713         1.023617
 H        -0.457520         0.796287        -0.402694
 H        -0.209174        -0.959362        -0.697363
 H         4.022026        -0.665977        -1.146542
 H         4.469146         1.349974         0.669980
 H         3.194220         1.971474        -0.409872
 H         0.923891         2.267950         1.229134
 H         3.512663        -0.596963         2.492321
 H         1.655878        -0.712766         2.616964
 H         2.587342        -2.204650         0.441926
