19
Iteration:  3246charge 0 multiplicity 1
 C        -0.027266        -0.174268         0.129408
 C         1.426056        -0.103023         0.012337
 O         2.088530         0.079792        -1.236380
 C         3.228927        -0.254191        -0.532584
 C         3.373884         1.145451         0.280408
 C         2.146101         0.724062         1.163233
 O         1.435970         1.723034         1.877385
 C         2.514097        -0.492840         2.036526
 C         2.491411        -1.209125         0.543510
 H        -0.286544        -0.474496         1.114526
 H        -0.451958         0.890792        -0.127982
 H        -0.578080        -0.846607        -0.613877
 H         4.075829        -0.541040        -1.130649
 H         4.288622         1.274393         0.919186
 H         3.026330         1.928652        -0.415966
 H         1.167331         2.486455         1.366540
 H         3.528967        -0.426094         2.555467
 H         1.675903        -0.704742         2.651025
 H         2.330897        -2.296599         0.305677
