19
Iteration:  4824charge 0 multiplicity 1
 C        -0.103102        -0.385575         0.187809
 C         1.379592        -0.051684         0.039273
 O         2.067187         0.122357        -1.239200
 C         3.267681        -0.216746        -0.448645
 C         3.399930         1.049814         0.294321
 C         2.076633         0.813453         1.199275
 O         1.478847         1.886191         1.721355
 C         2.580040        -0.562911         1.949263
 C         2.487519        -1.103237         0.502794
 H        -0.249280        -0.796705         1.169891
 H        -0.772271         0.479987         0.052119
 H        -0.524839        -0.985227        -0.599192
 H         3.993324        -0.595863        -1.092900
 H         4.166096         1.182096         1.007797
 H         3.553159         1.919731        -0.394248
 H         1.382508         1.598285         2.676054
 H         3.474926        -0.629819         2.489760
 H         1.800955        -0.832393         2.648146
 H         2.384469        -2.207275         0.100649
