19
Iteration:  2185
 C        -0.130928        -0.095518        -0.102244
 C         1.347375        -0.142498        -0.003318
 O         2.061844         0.128813        -1.249459
 C         3.316296        -0.149348        -0.440341
 C         3.369772         0.984587         0.460201
 C         2.160597         0.749978         1.209047
 O         1.541459         1.784254         1.989882
 C         2.500186        -0.562768         1.869576
 C         2.434334        -1.155862         0.417114
 H        -0.475106         0.024114         0.908236
 H        -0.384132         0.778811        -0.789349
 H        -0.502196        -1.062372        -0.571544
 H         4.234412        -0.410800        -0.986924
 H         4.227917         0.709520         1.057351
 H         3.461996         1.959914         0.054451
 H         1.226421         1.390007         2.858753
 H         3.494254        -0.543555         2.376940
 H         1.643762        -0.947096         2.494700
 H         2.452987        -2.268434         0.298147
