19
Iteration:  4790
 C        -0.076805        -0.352754         0.126914
 C         1.415123        -0.176298         0.061317
 O         1.977490         0.082156        -1.232019
 C         3.231706        -0.145439        -0.569292
 C         3.444599         1.100357         0.411843
 C         2.190187         0.818665         1.192663
 O         1.453265         1.784708         1.742392
 C         2.497995        -0.466749         1.964072
 C         2.480867        -1.154412         0.541553
 H        -0.456185        -0.865910         0.968285
 H        -0.500673         0.645695         0.248635
 H        -0.443755        -0.963755        -0.697072
 H         4.025678        -0.383001        -1.173204
 H         4.340375         0.923466         0.949563
 H         3.538293         2.014225        -0.255259
 H         1.935193         2.406414         2.284201
 H         3.370614        -0.611490         2.517251
 H         1.593413        -0.498454         2.503638
 H         2.499422        -2.241674         0.204784
