19
Iteration:   281charge 0 multiplicity 1
 C        -0.144001        -0.278173        -0.090620
 C         1.374385        -0.048164        -0.037960
 O         2.152149         0.220417        -1.210542
 C         3.314405        -0.182943        -0.420810
 C         3.443774         1.018462         0.424551
 C         2.093928         0.767187         1.263417
 O         1.755132         1.811266         1.974617
 C         2.214360        -0.608944         1.847680
 C         2.451276        -1.188093         0.483971
 H        -0.568086        -0.771557         0.826136
 H        -0.625199         0.763145        -0.246324
 H        -0.444477        -0.984086        -0.924652
 H         4.227726        -0.572689        -0.826071
 H         4.329636         1.125260         1.090551
 H         3.338223         1.935990        -0.182228
 H         0.813481         1.838845         1.913578
 H         2.892159        -0.852672         2.738092
 H         1.126558        -0.810391         2.072580
 H         2.438255        -2.146195         0.146399
