19
Iteration:  3795
 C        -0.150002        -0.481292         0.071860
 C         1.303382        -0.129967        -0.011037
 O         2.010095         0.086962        -1.231127
 C         3.295224        -0.222216        -0.489545
 C         3.475929         1.082430         0.369648
 C         2.086638         0.831294         1.185387
 O         1.575793         1.992420         1.851719
 C         2.538794        -0.459912         1.908517
 C         2.471330        -1.141574         0.514552
 H        -0.333997        -0.910422         1.132902
 H        -0.593222         0.508900        -0.314503
 H        -0.392103        -1.222593        -0.629388
 H         3.872840        -0.593193        -1.294837
 H         4.356006         0.994984         1.116654
 H         3.764207         1.955635        -0.195318
 H         1.028221         1.684455         2.550906
 H         3.465458        -0.512809         2.467806
 H         1.724784        -0.882589         2.578378
 H         2.482578        -2.247089         0.529820
