19
Iteration:  3933
 C        -0.096890        -0.276092         0.087874
 C         1.411071        -0.170705         0.195587
 O         1.985745         0.047470        -1.180032
 C         3.243993        -0.138833        -0.558404
 C         3.420014         0.991921         0.463960
 C         2.159527         0.752676         1.161325
 O         1.395945         1.905157         1.634478
 C         2.576148        -0.499915         1.920211
 C         2.550662        -1.090585         0.473235
 H        -0.474056        -0.674850         1.058345
 H        -0.481297         0.768171        -0.125057
 H        -0.659778        -1.023186        -0.551277
 H         4.089582        -0.471316        -1.177266
 H         4.361775         0.803345         0.983317
 H         3.456495         2.012534         0.040137
 H         1.604288         1.949081         2.579885
 H         3.538391        -0.540450         2.573898
 H         1.844125        -0.997914         2.574603
 H         2.438213        -2.107014         0.306592
