19
Iteration:  2416charge 0 multiplicity 1
 C        -0.103683        -0.088480         0.092412
 C         1.376270        -0.143538         0.063256
 O         2.046740         0.153296        -1.182528
 C         3.259904        -0.201376        -0.498648
 C         3.479100         0.934422         0.429906
 C         2.099344         0.734131         1.214584
 O         1.444944         1.872666         1.792384
 C         2.551951        -0.613886         1.891676
 C         2.479929        -1.137148         0.395777
 H        -0.425802        -0.475281         1.108167
 H        -0.345520         0.874875        -0.235161
 H        -0.500300        -0.844764        -0.626125
 H         4.175850        -0.663565        -1.045211
 H         4.375357         0.728208         1.064953
 H         3.463166         1.979702         0.054874
 H         0.805980         1.621494         2.482047
 H         3.592827        -0.467371         2.185700
 H         1.844158        -1.001435         2.667158
 H         2.436357        -2.192535        -0.015202
