19
Iteration:  4698charge 0 multiplicity 1
 C        -0.002906        -0.335813         0.048860
 C         1.407372        -0.184927         0.074402
 O         2.001629         0.120172        -1.230726
 C         3.295838        -0.229682        -0.485560
 C         3.432985         1.099663         0.262139
 C         2.119736         0.858868         1.143120
 O         1.467954         1.800747         1.996125
 C         2.432678        -0.529589         1.935705
 C         2.492283        -1.135219         0.519714
 H        -0.443965        -0.059320         1.078432
 H        -0.365108         0.542250        -0.507337
 H        -0.361977        -1.340874        -0.153916
 H         3.962686        -0.760348        -1.279894
 H         4.482992         1.229811         0.798571
 H         3.455372         1.906316        -0.506483
 H         1.057498         2.525976         1.420843
 H         3.440097        -0.545477         2.343485
 H         1.629294        -0.785913         2.584921
 H         2.496885        -2.190849         0.472986
