19
Iteration:   415charge 0 multiplicity 1
 C        -0.031213        -0.104764        -0.103964
 C         1.454715        -0.030332        -0.039124
 O         2.146264         0.258535        -1.210267
 C         3.291259        -0.269286        -0.393154
 C         3.437138         1.045272         0.507447
 C         2.102947         0.711278         1.217565
 O         1.556766         1.733527         1.955954
 C         2.325033        -0.659839         1.890842
 C         2.351123        -1.240279         0.432250
 H        -0.526045        -0.220290         0.906026
 H        -0.448761         0.930506        -0.413765
 H        -0.443154        -0.878848        -0.813712
 H         4.193431        -0.664322        -0.939697
 H         4.229539         1.200679         1.283638
 H         3.435197         1.937905        -0.169091
 H         1.241708         2.392222         1.344985
 H         3.290155        -0.963763         2.426886
 H         1.398353        -0.978911         2.430021
 H         2.220864        -2.275516         0.348547
