19
Iteration:  4639
 C        -0.004324        -0.345836         0.068739
 C         1.424017        -0.133236         0.087799
 O         1.951976         0.144891        -1.210852
 C         3.222887        -0.235640        -0.488263
 C         3.406548         1.081144         0.384011
 C         2.146716         0.752218         1.218612
 O         1.432967         1.855162         1.772202
 C         2.509899        -0.508232         1.909143
 C         2.538505        -1.148528         0.469848
 H        -0.221826        -0.545222         1.118882
 H        -0.629887         0.504644        -0.264590
 H        -0.363376        -1.209084        -0.510341
 H         3.988781        -0.473287        -1.123598
 H         4.276060         1.073893         1.005513
 H         3.345962         1.942826        -0.284357
 H         2.008427         2.627428         1.947096
 H         3.397477        -0.549265         2.608962
 H         1.661478        -0.834371         2.669660
 H         2.444628        -2.302010         0.517932
