19
Iteration:  3555charge 0 multiplicity 1
 C        -0.058139        -0.123277         0.142267
 C         1.424172        -0.185445        -0.021949
 O         1.994828        -0.046635        -1.241004
 C         3.310464        -0.105613        -0.523954
 C         3.395889         1.168805         0.291898
 C         2.189280         0.726382         1.226189
 O         1.497306         1.790676         1.809872
 C         2.451595        -0.513016         1.972346
 C         2.504077        -1.161379         0.547371
 H        -0.495787        -0.508867         1.169413
 H        -0.360190         0.941216        -0.140249
 H        -0.675672        -0.705490        -0.526037
 H         4.078690        -0.449455        -1.323711
 H         4.304951         1.103354         0.941148
 H         3.233031         2.059609        -0.396781
 H         0.922459         1.383732         2.456244
 H         3.308005        -0.473713         2.662030
 H         1.551464        -0.938301         2.576241
 H         2.659965        -2.218667         0.334847
