19
Iteration:  3300charge 0 multiplicity 1
 C        -0.126506        -0.378104         0.043512
 C         1.333433        -0.186627         0.024423
 O         2.011178         0.134139        -1.312951
 C         3.244760        -0.162986        -0.523561
 C         3.398952         0.990105         0.400584
 C         2.128492         0.750825         1.232260
 O         1.536530         1.897004         1.861413
 C         2.576867        -0.438065         1.963290
 C         2.390600        -1.142486         0.550122
 H        -0.355399        -0.863885         0.940650
 H        -0.566239         0.581261        -0.228198
 H        -0.153320        -1.152729        -0.784675
 H         4.128762        -0.481368        -1.037807
 H         4.265362         0.990997         1.085373
 H         3.484647         1.972864        -0.086349
 H         2.126307         2.633782         1.851651
 H         3.641716        -0.518465         2.349454
 H         1.906071        -0.814232         2.691613
 H         2.393004        -2.257873         0.622540
