19
Iteration:  2071charge 0 multiplicity 1
 C        -0.106148        -0.015962        -0.035623
 C         1.409573        -0.095246         0.025697
 O         2.164724         0.104257        -1.196577
 C         3.329938        -0.185046        -0.429437
 C         3.356066         1.093419         0.381424
 C         2.081538         0.693796         1.210340
 O         1.516496         1.761783         1.879795
 C         2.510636        -0.667994         1.876446
 C         2.412572        -1.176551         0.457361
 H        -0.584474        -0.740776         0.712303
 H        -0.461693         1.103883         0.297993
 H        -0.547782        -0.350736        -0.993181
 H         4.214164        -0.444406        -1.031184
 H         4.278971         1.247945         1.042429
 H         3.173858         2.055841        -0.203948
 H         0.924880         1.339382         2.581318
 H         3.394082        -0.866909         2.512412
 H         1.585861        -0.945989         2.429148
 H         2.206845        -2.234284         0.353845
