19
Iteration:  3657
 C        -0.115205        -0.454546         0.083879
 C         1.307317        -0.222500        -0.018043
 O         2.039905         0.090039        -1.363635
 C         3.266835        -0.103955        -0.449458
 C         3.360672         1.078002         0.432141
 C         2.142917         0.812229         1.247152
 O         1.735311         1.974628         1.851850
 C         2.454517        -0.484141         1.904165
 C         2.392241        -1.143796         0.465456
 H        -0.309362        -0.628837         1.159448
 H        -0.855326         0.281870        -0.157511
 H        -0.486977        -1.429258        -0.512452
 H         4.112294        -0.604655        -0.828865
 H         4.362804         1.119107         0.846374
 H         3.272295         2.092417         0.039382
 H         1.287187         1.779637         2.741912
 H         3.330525        -0.484287         2.596594
 H         1.575086        -0.879935         2.421094
 H         2.607203        -2.267359         0.356533
