19
Iteration:  2354charge 0 multiplicity 1
 C        -0.075274        -0.106434        -0.109017
 C         1.372467        -0.145166         0.014377
 O         2.057230         0.080089        -1.281887
 C         3.286421        -0.255603        -0.517615
 C         3.290145         1.120598         0.431140
 C         2.119846         0.678636         1.227397
 O         1.657081         1.890825         2.008681
 C         2.466448        -0.633296         1.890166
 C         2.460814        -1.147655         0.508565
 H        -0.662916         0.001630         0.859778
 H        -0.483389         0.764070        -0.708807
 H        -0.463832        -1.042691        -0.483575
 H         4.103078        -0.667624        -1.131911
 H         4.160022         1.380301         1.090258
 H         3.154282         2.131785        -0.026143
 H         1.187397         1.514925         2.785918
 H         3.509864        -0.838914         2.291784
 H         1.537557        -0.927532         2.424068
 H         2.490925        -2.204014         0.398942
