19
Iteration:  2513charge 0 multiplicity 1
 C        -0.138957        -0.261583        -0.107449
 C         1.410102        -0.086878         0.075847
 O         1.954847         0.164740        -1.229694
 C         3.243287        -0.214350        -0.442975
 C         3.341929         1.083241         0.342521
 C         2.186257         0.736577         1.183355
 O         1.664135         1.879558         1.912846
 C         2.494129        -0.570783         1.964143
 C         2.476769        -1.193237         0.535700
 H        -0.438953        -0.808324         0.809106
 H        -0.567429         0.678077        -0.306360
 H        -0.297574        -0.997613        -0.927543
 H         3.996865        -0.731320        -1.127827
 H         4.298132         1.260744         0.915918
 H         3.242345         1.936821        -0.380330
 H         1.240640         1.537092         2.717018
 H         3.425768        -0.557178         2.508642
 H         1.587260        -0.879752         2.491276
 H         2.455131        -2.275849         0.228522
