19
Iteration:  3604
 C        -0.093947        -0.308807         0.011866
 C         1.395497        -0.142009         0.071585
 O         1.981323         0.196309        -1.201297
 C         3.211989        -0.192150        -0.501474
 C         3.423932         1.067227         0.357313
 C         2.197665         0.825987         1.211770
 O         1.550854         1.845671         1.762949
 C         2.614584        -0.573418         2.008027
 C         2.432146        -1.166996         0.579592
 H        -0.509482        -0.675419         0.939086
 H        -0.624677         0.580736        -0.243804
 H        -0.492397        -1.224326        -0.533779
 H         3.892859        -0.720686        -1.124385
 H         4.407723         1.255291         0.778278
 H         3.292155         1.935854        -0.352264
 H         0.555032         1.701001         1.730350
 H         3.650958        -0.778847         2.368034
 H         1.917043        -0.837072         2.749350
 H         2.224761        -2.237817         0.311447
