19
Iteration:  3164
 C        -0.132269        -0.431465        -0.069635
 C         1.357584        -0.224020         0.101610
 O         1.957738         0.125825        -1.128803
 C         3.293461        -0.145704        -0.510087
 C         3.374673         1.121378         0.353233
 C         2.162819         0.771583         1.236356
 O         1.614934         1.988342         1.855794
 C         2.515930        -0.585572         1.908390
 C         2.437677        -1.188805         0.509606
 H        -0.641321        -0.423265         0.949210
 H        -0.685768         0.327862        -0.559557
 H        -0.384465        -1.356460        -0.526894
 H         4.173113        -0.423313        -1.097340
 H         4.242319         1.192622         0.982007
 H         3.277892         2.069538        -0.175310
 H         2.191856         2.749075         1.549326
 H         3.398726        -0.793723         2.449458
 H         1.671116        -0.935485         2.540730
 H         2.477185        -2.260838         0.379146
