19
Iteration:  4219charge 0 multiplicity 1
 C        -0.142629        -0.280605         0.163382
 C         1.381064        -0.176883         0.040258
 O         2.038949         0.107545        -1.263336
 C         3.338181        -0.235018        -0.524329
 C         3.382818         1.065859         0.367636
 C         2.125843         0.762013         1.171729
 O         1.498576         1.923751         1.831114
 C         2.554956        -0.522886         1.929851
 C         2.562033        -1.150449         0.549749
 H        -0.525724        -0.656486         1.166778
 H        -0.583207         0.630500        -0.366899
 H        -0.640632        -0.918572        -0.525140
 H         4.157973        -0.617479        -1.147213
 H         4.313426         1.030307         0.940385
 H         3.136033         1.874874        -0.229535
 H         0.536444         1.784267         1.816234
 H         3.515881        -0.438411         2.537498
 H         1.616392        -0.794695         2.499239
 H         2.459417        -2.156370         0.315188
