19
Iteration:  2525charge 0 multiplicity 1
 C        -0.043168        -0.147715        -0.031214
 C         1.339216        -0.160815         0.096823
 O         2.010983         0.125091        -1.166852
 C         3.227759        -0.226670        -0.532406
 C         3.347834         1.070624         0.310112
 C         2.122350         0.744297         1.257902
 O         1.615189         1.865229         1.865470
 C         2.483790        -0.553759         1.959849
 C         2.520439        -1.255616         0.433640
 H        -0.736572        -0.334097         0.847731
 H        -0.449032         0.742734        -0.396805
 H        -0.233779        -0.868794        -0.832076
 H         4.156451        -0.238171        -1.186634
 H         4.272814         1.255719         0.908185
 H         2.980653         1.937937        -0.317946
 H         1.264002         1.635866         2.720100
 H         3.334736        -0.589698         2.656997
 H         1.653054        -0.940077         2.574341
 H         2.767952        -2.312120         0.381548
