19
Iteration:  2928
 C        -0.122586        -0.256960         0.093881
 C         1.388881        -0.134439        -0.001503
 O         1.994337         0.083318        -1.272992
 C         3.213487        -0.229523        -0.499528
 C         3.469955         1.042504         0.437621
 C         2.155017         0.794493         1.262103
 O         1.428175         1.852327         1.767402
 C         2.551112        -0.506529         1.927237
 C         2.498572        -1.153691         0.498833
 H        -0.355413        -0.416274         1.226923
 H        -0.770453         0.522241        -0.330034
 H        -0.363410        -1.203643        -0.394772
 H         4.011741        -0.519219        -1.187898
 H         4.376191         0.872807         1.103094
 H         3.423858         1.956204        -0.196504
 H         2.042942         2.443946         2.226083
 H         3.560020        -0.451946         2.457212
 H         1.822497        -0.901298         2.727065
 H         2.633578        -2.164585         0.297268
