19
Iteration:  2057
 C        -0.098762        -0.009344        -0.032562
 C         1.386879        -0.167357        -0.032411
 O         2.125711         0.106467        -1.355021
 C         3.313662        -0.276224        -0.476856
 C         3.359584         1.045693         0.524208
 C         2.119208         0.746528         1.198943
 O         1.453054         1.793949         1.964262
 C         2.480675        -0.588808         1.922523
 C         2.484819        -1.187551         0.473491
 H        -0.722124        -0.583811         0.771086
 H        -0.242817         1.057897         0.307466
 H        -0.584698        -0.043654        -1.074016
 H         4.183437        -0.624321        -1.058668
 H         4.192740         1.317466         1.244863
 H         3.252978         1.848716        -0.226288
 H         1.204942         1.467890         2.804764
 H         3.488100        -0.439656         2.366836
 H         1.899163        -1.163009         2.603447
 H         2.520963        -2.224474         0.050033
