19
Iteration:    38charge 0 multiplicity 1
 C        -0.142543        -0.067768        -0.033253
 C         1.388175        -0.170369         0.000289
 O         2.189438         0.175304        -1.191431
 C         3.286895        -0.216479        -0.418275
 C         3.494401         0.967852         0.514155
 C         2.167524         0.708475         1.268798
 O         1.448243         1.916458         1.697948
 C         2.364805        -0.683723         1.921124
 C         2.445742        -1.182590         0.448667
 H        -0.505582        -0.113831         1.038895
 H        -0.422958         0.941332        -0.444271
 H        -0.695632        -0.800573        -0.685124
 H         4.133631        -0.493850        -1.081343
 H         4.401649         0.925106         1.160069
 H         3.636724         1.950152         0.033239
 H         1.179669         1.958339         2.647837
 H         3.218250        -0.864967         2.642877
 H         1.375930        -1.138224         2.430289
 H         2.425147        -2.314702         0.197993
