19
Iteration:  3243charge 0 multiplicity 1
 C        -0.031234        -0.149897         0.130963
 C         1.408380        -0.087920         0.009795
 O         2.103961         0.063377        -1.248282
 C         3.249716        -0.253857        -0.529906
 C         3.385927         1.128113         0.267500
 C         2.132317         0.720263         1.171228
 O         1.433753         1.706017         1.882115
 C         2.539263        -0.481326         2.037548
 C         2.482442        -1.179404         0.526716
 H        -0.327616        -0.500315         1.171802
 H        -0.629549         0.758979        -0.075720
 H        -0.573478        -0.859608        -0.521392
 H         4.133040        -0.615112        -1.136281
 H         4.208702         1.241972         0.993118
 H         3.080021         1.929290        -0.392996
 H         1.079614         2.490550         1.370262
 H         3.460057        -0.400393         2.585967
 H         1.661265        -0.700724         2.701750
 H         2.313443        -2.237089         0.267600
