19
Iteration:  3609charge 0 multiplicity 1
 C        -0.080833        -0.364960         0.037002
 C         1.389562        -0.113701         0.091524
 O         1.978018         0.203011        -1.203712
 C         3.172320        -0.215775        -0.494427
 C         3.401006         1.098605         0.367412
 C         2.230532         0.812312         1.206774
 O         1.580442         1.844122         1.754247
 C         2.588448        -0.564894         1.974693
 C         2.435879        -1.153984         0.585449
 H        -0.691980        -0.644938         0.947647
 H        -0.598776         0.576803        -0.327793
 H        -0.300924        -1.185923        -0.635802
 H         3.904364        -0.754087        -1.176645
 H         4.366683         1.289026         0.888970
 H         3.463593         1.953429        -0.337527
 H         0.659992         1.656188         1.712620
 H         3.572182        -0.786951         2.401446
 H         1.741279        -0.856296         2.684317
 H         2.316001        -2.184582         0.287086
