19
Iteration:   918charge 0 multiplicity 1
 C        -0.103314        -0.076051         0.018565
 C         1.439874        -0.092353        -0.027180
 O         2.109300         0.231300        -1.192802
 C         3.318753        -0.226073        -0.476459
 C         3.496641         0.958342         0.429820
 C         2.177095         0.733401         1.170642
 O         1.490800         1.698952         1.899000
 C         2.362114        -0.530675         1.928521
 C         2.407390        -1.156202         0.493949
 H        -0.647543        -0.298795         0.927142
 H        -0.400859         0.838137        -0.488109
 H        -0.412560        -0.921534        -0.541931
 H         4.116041        -0.706506        -1.143581
 H         4.409013         1.023263         1.039012
 H         3.518693         1.882766        -0.166446
 H         0.617747         1.377855         1.732178
 H         3.178559        -0.513369         2.599682
 H         1.381304        -0.843224         2.390427
 H         2.468189        -2.264585         0.372526
