19
Iteration:  4553
 C        -0.106404        -0.255195         0.104025
 C         1.385175        -0.212986         0.066315
 O         1.981933         0.050695        -1.183714
 C         3.219265        -0.200840        -0.474599
 C         3.397315         1.180792         0.311059
 C         2.215938         0.745684         1.219842
 O         1.486185         1.892420         1.740997
 C         2.555699        -0.542460         1.944167
 C         2.564194        -1.116847         0.516115
 H        -0.535007        -0.866950         0.945101
 H        -0.519061         0.718859        -0.052483
 H        -0.282367        -0.736802        -0.863007
 H         3.986143        -0.488725        -1.081605
 H         4.374073         1.285864         0.767223
 H         3.050888         1.934496        -0.331148
 H         1.085469         1.481122         2.491123
 H         3.406540        -0.663235         2.556660
 H         1.619538        -0.864398         2.357283
 H         2.556933        -2.284538         0.519260
