19
Iteration:  1915charge 0 multiplicity 1
 C        -0.152336        -0.026532        -0.182637
 C         1.394904        -0.068498         0.022932
 O         2.094400         0.126113        -1.276744
 C         3.251998        -0.198108        -0.439705
 C         3.502365         1.088547         0.489157
 C         2.145008         0.764574         1.199248
 O         1.494490         1.649375         2.062393
 C         2.550125        -0.681559         1.894800
 C         2.389999        -1.109558         0.487997
 H        -0.641569         0.035028         0.831098
 H        -0.436139         0.791826        -0.783442
 H        -0.419442        -1.004923        -0.670220
 H         3.942110        -0.792436        -1.030384
 H         4.228002         1.111946         1.335621
 H         3.576200         2.071450         0.061175
 H         0.766410         1.901272         1.515259
 H         3.474373        -0.819508         2.445695
 H         1.778889        -1.031439         2.517255
 H         2.334175        -2.121003         0.024948
