19
Iteration:  2116charge 0 multiplicity 1
 C        -0.110024        -0.318253        -0.031352
 C         1.398431        -0.037778         0.028005
 O         2.082922         0.282283        -1.175484
 C         3.241030        -0.115619        -0.551722
 C         3.490027         0.872882         0.510557
 C         2.044799         0.722407         1.225154
 O         1.606747         1.906992         1.914272
 C         2.408673        -0.609976         1.887453
 C         2.425932        -1.180099         0.415073
 H        -0.308268        -0.573944         1.021705
 H        -0.744223         0.604412        -0.501960
 H        -0.194525        -1.254839        -0.591760
 H         4.122118        -0.417206        -1.111472
 H         4.268792         0.456905         1.213285
 H         3.850147         1.873331         0.135111
 H         0.634392         2.013130         1.728273
 H         3.370582        -0.515899         2.413239
 H         1.687309        -1.226978         2.498707
 H         2.499945        -2.197823         0.050152
