19
Iteration:  2631charge 0 multiplicity 1
 C        -0.172115        -0.446321        -0.060683
 C         1.281866        -0.181569         0.002616
 O         1.938302         0.126812        -1.274301
 C         3.206111        -0.110268        -0.460949
 C         3.470559         0.948235         0.449821
 C         2.072563         0.777425         1.207405
 O         1.790414         2.067798         1.892456
 C         2.467426        -0.592079         1.957187
 C         2.538975        -1.108994         0.523482
 H        -0.574957        -1.076170         0.789949
 H        -0.724931         0.559753        -0.213728
 H        -0.328657        -1.114537        -0.999851
 H         4.023048        -0.333064        -1.184314
 H         4.395009         0.903357         1.083653
 H         3.661898         1.961608         0.020019
 H         0.940432         2.117472         2.336832
 H         3.439761        -0.437714         2.444672
 H         1.675997        -1.127120         2.569527
 H         2.457878        -2.215501         0.306226
