19
Iteration:  3886
 C        -0.079770        -0.273278         0.231351
 C         1.404469        -0.105767         0.010446
 O         2.099114         0.010272        -1.231675
 C         3.288967        -0.221209        -0.452182
 C         3.394751         1.143602         0.300801
 C         2.114093         0.783712         1.151115
 O         1.459395         1.866431         1.789942
 C         2.540047        -0.497621         1.901918
 C         2.453203        -1.123011         0.472971
 H        -0.426211        -0.389378         1.264094
 H        -0.630543         0.514480        -0.299629
 H        -0.471290        -1.303638        -0.232460
 H         4.164798        -0.457024        -1.111602
 H         4.231565         1.072967         0.985986
 H         3.518706         1.950137        -0.453488
 H         0.941668         1.610726         2.611894
 H         3.392506        -0.634504         2.662530
 H         1.683891        -0.835557         2.528848
 H         2.278644        -2.248626         0.176742
