19
Iteration:    10
 C        -0.056070        -0.068599        -0.094931
 C         1.416702        -0.036230        -0.025755
 O         2.070652         0.164449        -1.192389
 C         3.338995        -0.268377        -0.351444
 C         3.454881         0.959669         0.570751
 C         2.040030         0.705012         1.124185
 O         1.490434         1.784622         1.726551
 C         2.426952        -0.607944         1.933243
 C         2.419374        -1.162089         0.493448
 H        -0.448788        -0.303354         0.868973
 H        -0.507936         0.869930        -0.341877
 H        -0.422438        -0.839940        -0.730363
 H         4.153105        -0.426001        -1.041851
 H         4.014763         0.763660         1.509693
 H         3.599055         1.974184         0.109476
 H         2.066766         2.002020         2.473807
 H         3.351991        -0.545868         2.501868
 H         1.643890        -1.039828         2.415728
 H         2.084864        -2.119636         0.355934
