19
Iteration:  1023
 C        -0.128648        -0.143823        -0.052178
 C         1.410325        -0.045137         0.035857
 O         2.146111         0.112237        -1.272775
 C         3.298521        -0.212753        -0.442030
 C         3.441057         0.956178         0.452817
 C         2.165733         0.773792         1.218596
 O         1.583913         1.879155         1.931057
 C         2.371601        -0.642292         1.910939
 C         2.408579        -1.145870         0.468618
 H        -0.605621        -0.501946         0.866455
 H        -0.712101         0.788469        -0.280559
 H        -0.564317        -0.782782        -0.864804
 H         4.186661        -0.592614        -0.982847
 H         4.319607         1.095521         1.107459
 H         3.301615         1.866856        -0.151495
 H         0.672521         1.568943         2.038531
 H         3.357551        -0.801435         2.437755
 H         1.493720        -1.008280         2.462924
 H         2.282210        -2.191593         0.195534
