19
Iteration:  3339
 C        -0.107054        -0.385102         0.152299
 C         1.401979        -0.102864         0.074752
 O         2.050759         0.103776        -1.273328
 C         3.313566        -0.194176        -0.548153
 C         3.432535         1.082885         0.319950
 C         2.203620         0.787666         1.206093
 O         1.506049         1.846217         1.861889
 C         2.381947        -0.512469         1.994401
 C         2.443430        -1.098203         0.499915
 H        -0.569225        -0.802788         1.133936
 H        -0.786906         0.377856        -0.229587
 H        -0.337738        -1.210579        -0.521658
 H         4.133293        -0.511587        -1.283776
 H         4.404065         0.971684         0.809621
 H         3.263721         1.971392        -0.297286
 H         2.193110         2.567733         1.704019
 H         3.053766        -0.813026         2.762031
 H         1.286609        -0.745587         2.287147
 H         2.615038        -2.155354         0.300524
