19
Iteration:  1042charge 0 multiplicity 1
 C        -0.126129         0.001564         0.089617
 C         1.337140        -0.190291        -0.097114
 O         2.154092         0.172507        -1.214914
 C         3.353504        -0.252617        -0.392402
 C         3.452980         1.074281         0.580028
 C         2.025607         0.669997         1.149485
 O         1.546372         1.837558         1.764928
 C         2.483089        -0.624254         1.865175
 C         2.390926        -1.232707         0.443003
 H        -0.333197        -0.301725         1.167138
 H        -0.468118         0.998520        -0.281764
 H        -0.883031        -0.601767        -0.526324
 H         4.204947        -0.590028        -0.853862
 H         4.216897         0.945839         1.341212
 H         3.647709         2.036599         0.087068
 H         0.725462         1.663517         2.211189
 H         3.532820        -0.510111         2.323341
 H         1.654775        -1.096280         2.403961
 H         2.499200        -2.278268         0.137284
