19
Iteration:  2247
 C        -0.131464        -0.052689         0.043729
 C         1.417002        -0.164810         0.006439
 O         2.005114         0.172658        -1.276337
 C         3.408134        -0.241964        -0.507275
 C         3.459000         1.100195         0.475537
 C         2.131762         0.693324         1.201571
 O         1.498765         1.809879         1.852282
 C         2.448944        -0.658012         1.897729
 C         2.462658        -1.168737         0.484255
 H        -0.566210        -0.629345         0.834325
 H        -0.537297         1.007249         0.153401
 H        -0.541727        -0.393728        -0.879956
 H         4.250323        -0.444932        -1.133294
 H         4.305296         0.916614         1.191131
 H         3.348954         2.087552        -0.005752
 H         0.990869         1.338080         2.566223
 H         3.237075        -0.621291         2.614582
 H         1.614328        -1.072871         2.455101
 H         2.492691        -2.214934         0.228568
