19
Iteration:  3205
 C        -0.092589        -0.277246         0.095830
 C         1.393226        -0.250400         0.020052
 O         2.023441         0.084322        -1.235660
 C         3.260123        -0.192170        -0.543281
 C         3.502639         1.108873         0.403956
 C         2.173995         0.858831         1.151970
 O         1.447071         1.835611         1.941352
 C         2.514378        -0.493576         1.918901
 C         2.414644        -1.205585         0.493152
 H        -0.188901        -0.287469         1.158487
 H        -0.578767         0.596409        -0.356546
 H        -0.392383        -1.252777        -0.301927
 H         3.938777        -0.593731        -1.255602
 H         4.314198         1.010671         1.131755
 H         3.720427         2.052173        -0.149538
 H         1.078465         2.421909         1.256034
 H         3.488507        -0.482124         2.498255
 H         1.657718        -0.729136         2.537566
 H         2.438882        -2.263359         0.178011
