19
Iteration:  3959
 C        -0.130015        -0.372104        -0.012846
 C         1.369123        -0.132032         0.083093
 O         2.001804         0.100913        -1.224945
 C         3.291239        -0.215560        -0.423558
 C         3.418820         1.100858         0.291749
 C         2.185474         0.839269         1.142302
 O         1.432751         1.877701         1.816709
 C         2.579655        -0.535392         1.958130
 C         2.439014        -1.156624         0.553116
 H        -0.242663        -0.903008         0.967232
 H        -0.669155         0.601264        -0.064631
 H        -0.642798        -0.989426        -0.634378
 H         4.097557        -0.657506        -0.998861
 H         4.321451         1.157367         0.995418
 H         3.521491         1.944459        -0.377074
 H         2.047713         2.307608         2.456670
 H         3.472698        -0.511457         2.528250
 H         1.774499        -0.892371         2.648238
 H         2.523074        -2.273804         0.371483
