19
Iteration:  3978charge 0 multiplicity 1
 C        -0.044511        -0.368190         0.083127
 C         1.366629        -0.089396         0.071576
 O         2.082473         0.061946        -1.239181
 C         3.289382        -0.241000        -0.482591
 C         3.348779         1.098215         0.299218
 C         2.128837         0.788834         1.184721
 O         1.542830         1.791674         1.881578
 C         2.446856        -0.413578         1.896282
 C         2.424460        -1.137124         0.563179
 H        -0.618864        -0.998938         0.843196
 H        -0.659319         0.589827        -0.214336
 H        -0.075007        -0.988500        -0.859829
 H         3.994758        -0.599082        -1.214763
 H         4.249975         1.470044         0.864201
 H         3.050468         1.848254        -0.416440
 H         2.153938         2.461234         2.159186
 H         3.320974        -0.344808         2.643249
 H         1.718203        -0.841723         2.637616
 H         2.339248        -2.132070         0.366217
