19
Iteration:  2226charge 0 multiplicity 1
 C         0.007077         0.004712        -0.047059
 C         1.451899        -0.087971         0.055511
 O         2.056556         0.160281        -1.190506
 C         3.268823        -0.228094        -0.430764
 C         3.341453         1.011666         0.358262
 C         2.164394         0.741522         1.269225
 O         1.416818         1.697060         1.879346
 C         2.540509        -0.593079         1.875637
 C         2.438718        -1.195882         0.483303
 H        -0.601386        -0.314318         0.739685
 H        -0.399899         1.049372        -0.282720
 H        -0.381317        -0.344927        -0.973424
 H         4.134615        -0.453567        -1.013949
 H         4.319422         1.039784         0.885727
 H         3.106730         1.744302        -0.394600
 H         1.136209         1.349310         2.740988
 H         3.458547        -0.778434         2.408571
 H         1.711426        -0.878053         2.537902
 H         2.393564        -2.188404         0.035374
