19
Iteration:  2808charge 0 multiplicity 1
 C        -0.082829        -0.469279        -0.080406
 C         1.377525        -0.113139         0.044982
 O         1.957110         0.088409        -1.218848
 C         3.255159        -0.213025        -0.422680
 C         3.282786         1.143405         0.357222
 C         2.150785         0.814352         1.233777
 O         1.791943         1.908299         2.014992
 C         2.425273        -0.508221         1.866787
 C         2.451804        -1.139255         0.500487
 H        -0.575624        -0.790569         0.912203
 H        -0.553968         0.413032        -0.463528
 H        -0.104882        -1.252519        -0.839420
 H         4.047916        -0.570717        -1.053480
 H         4.206869         1.278874         0.906908
 H         2.985501         1.702825        -0.498776
 H         1.750073         2.643988         1.371494
 H         3.161425        -0.663815         2.680645
 H         1.485829        -0.963741         2.303353
 H         2.297682        -2.139647         0.422867
