19
Iteration:  1109
 C        -0.152316        -0.195997        -0.161679
 C         1.352293        -0.091861        -0.049283
 O         2.153453         0.191539        -1.236263
 C         3.289567        -0.258324        -0.401037
 C         3.436717         0.976671         0.513283
 C         2.069981         0.743552         1.179217
 O         1.618934         1.836782         1.928022
 C         2.426470        -0.499382         1.917911
 C         2.332416        -1.161579         0.451091
 H        -0.306480        -0.662415         0.815732
 H        -0.507211         0.820284        -0.426684
 H        -0.401279        -0.963144        -0.956475
 H         4.046199        -0.768946        -0.922016
 H         4.169493         0.856226         1.315510
 H         3.472942         1.961837         0.059401
 H         1.835959         1.574682         2.868407
 H         3.438082        -0.392424         2.468303
 H         1.649668        -1.017017         2.475047
 H         2.188694        -2.232211         0.305697
