19
Iteration:  1736
 C        -0.121600         0.017718        -0.106110
 C         1.375421        -0.116298        -0.086718
 O         2.133489         0.104287        -1.243158
 C         3.338750        -0.253604        -0.367678
 C         3.464382         1.182141         0.413628
 C         2.203773         0.753776         1.230020
 O         1.374114         1.608974         1.972267
 C         2.544811        -0.626805         1.908046
 C         2.318788        -1.159624         0.450270
 H        -0.372877        -0.048456         0.950294
 H        -0.529731         0.989295        -0.533994
 H        -0.648963        -0.719380        -0.679371
 H         4.077070        -0.744780        -1.061094
 H         4.281730         1.386291         1.083113
 H         3.535642         1.993930        -0.340663
 H         1.652571         1.810911         2.899381
 H         3.543841        -0.684155         2.254628
 H         1.815890        -0.992612         2.653359
 H         2.034520        -2.199943         0.280279
