19
Iteration:  2598charge 0 multiplicity 1
 C        -0.060395        -0.289138         0.101543
 C         1.411861        -0.095829         0.044206
 O         1.976525         0.199263        -1.213250
 C         3.225909        -0.203008        -0.431363
 C         3.506528         1.049070         0.360805
 C         2.165578         0.743342         1.201483
 O         1.606949         1.893833         1.844330
 C         2.422616        -0.617645         1.869963
 C         2.462411        -1.151159         0.525164
 H        -0.536398        -0.371595         1.091948
 H        -0.670645         0.441014        -0.530885
 H        -0.252927        -1.309438        -0.392298
 H         3.966123        -0.396254        -1.218347
 H         4.482495         1.097386         0.864884
 H         3.244466         1.782285        -0.416988
 H         0.630491         1.687074         1.742088
 H         3.296480        -0.668626         2.530519
 H         1.515982        -0.961017         2.427589
 H         2.387971        -2.229291         0.218680
