19
Iteration:  1082
 C        -0.084899        -0.028549        -0.041786
 C         1.456583        -0.060988         0.101999
 O         2.048476         0.174943        -1.175322
 C         3.335586        -0.234080        -0.495063
 C         3.579346         0.984257         0.402147
 C         2.240820         0.743651         1.246276
 O         1.354218         1.834147         1.768401
 C         2.366112        -0.686236         1.957571
 C         2.427377        -1.165315         0.439051
 H        -0.424559        -0.383502         0.939669
 H        -0.363839         0.986116        -0.351089
 H        -0.204840        -0.830266        -0.714873
 H         4.051385        -0.882310        -1.142169
 H         4.432623         0.889918         1.085265
 H         3.386766         2.002189         0.004173
 H         1.135172         1.464599         2.688036
 H         3.024787        -0.964642         2.723091
 H         1.323546        -1.034674         2.243985
 H         2.351227        -2.237917         0.178420
