19
Iteration:  2941
 C        -0.112761        -0.416321        -0.023980
 C         1.333337        -0.074672         0.102391
 O         1.974131         0.154273        -1.245130
 C         3.218528        -0.215495        -0.441064
 C         3.460227         1.020699         0.359146
 C         2.174245         0.791583         1.155958
 O         1.499023         1.844186         1.861353
 C         2.590735        -0.495176         1.953630
 C         2.451018        -1.145779         0.565919
 H        -0.733378        -0.408433         0.915015
 H        -0.445545         0.503052        -0.613901
 H        -0.330080        -1.304090        -0.645098
 H         4.049600        -0.717478        -1.044950
 H         4.455889         1.146077         0.832351
 H         3.390021         1.919595        -0.280329
 H         2.118841         2.598814         1.998645
 H         3.616305        -0.392753         2.457969
 H         1.786643        -0.928645         2.573123
 H         2.135439        -2.190424         0.357824
