19
Iteration:  3900
 C        -0.084580        -0.291334         0.207761
 C         1.400881        -0.200622         0.117757
 O         2.040788         0.145821        -1.208967
 C         3.324125        -0.224076        -0.462600
 C         3.443535         1.082221         0.337804
 C         2.222985         0.833719         1.151330
 O         1.397392         1.861181         1.690569
 C         2.454793        -0.536946         1.862308
 C         2.506771        -1.165011         0.502466
 H        -0.287972        -0.126120         1.258747
 H        -0.561123         0.665983        -0.004948
 H        -0.596233        -1.195892        -0.254593
 H         4.133743        -0.716804        -1.044903
 H         4.355109         1.375732         0.810192
 H         3.024906         1.860010        -0.360412
 H         1.220625         1.511665         2.542324
 H         3.410656        -0.582153         2.505481
 H         1.549794        -0.900646         2.374174
 H         2.524040        -2.196235         0.327347
