19
Iteration:  2844
 C        -0.176976        -0.316684        -0.057815
 C         1.353902        -0.116549         0.044710
 O         1.935827         0.030161        -1.194323
 C         3.271889        -0.222137        -0.461441
 C         3.446961         1.041954         0.386319
 C         2.169680         0.811828         1.233724
 O         1.462309         1.859959         1.874325
 C         2.647756        -0.476115         1.852480
 C         2.485684        -1.116035         0.561183
 H        -0.595518        -0.831314         0.817058
 H        -0.722301         0.651799        -0.108364
 H        -0.494865        -0.901147        -0.913110
 H         4.030552        -0.545378        -1.222983
 H         4.353274         1.035490         0.976790
 H         3.650709         1.965569        -0.149342
 H         2.165837         2.450654         2.247316
 H         3.608803        -0.513222         2.355238
 H         1.817151        -0.803005         2.413430
 H         2.425086        -2.249248         0.466852
