19
Iteration:  2315charge 0 multiplicity 1
 C        -0.207290        -0.416173        -0.098131
 C         1.374822        -0.024461         0.048189
 O         2.027006         0.276990        -1.129642
 C         3.239369        -0.191683        -0.519590
 C         3.553042         1.014818         0.484811
 C         2.190770         0.780691         1.216311
 O         1.704739         1.905034         1.905590
 C         2.415547        -0.606240         1.864403
 C         2.377715        -1.155250         0.457730
 H        -0.656521        -0.777322         0.770436
 H        -0.727492         0.429610        -0.575896
 H        -0.059293        -1.149976        -0.897434
 H         3.788129        -0.798677        -1.218064
 H         4.373619         0.732816         1.164977
 H         3.491708         2.017720         0.116883
 H         0.731851         1.731915         2.029882
 H         3.170073        -0.847886         2.574324
 H         1.584641        -1.019299         2.432381
 H         2.284172        -2.254652         0.218797
