19
Iteration:    14
 C        -0.055223        -0.052274        -0.079500
 C         1.374143        -0.032221        -0.016936
 O         2.044017         0.174369        -1.229646
 C         3.379733        -0.244919        -0.339204
 C         3.407939         0.932942         0.646948
 C         2.012338         0.664389         1.081354
 O         1.509382         1.796715         1.685234
 C         2.468665        -0.579350         1.908411
 C         2.438124        -1.163083         0.518396
 H        -0.345392        -0.249831         1.010481
 H        -0.492871         0.932849        -0.402697
 H        -0.449396        -0.850764        -0.771706
 H         4.184765        -0.486910        -1.043648
 H         3.989443         0.835524         1.515090
 H         3.746123         1.879416         0.287075
 H         2.067076         1.817028         2.543470
 H         3.380882        -0.469438         2.496019
 H         1.687464        -1.209775         2.622925
 H         2.069698        -2.260509         0.277832
