19
Iteration:  4015charge 0 multiplicity 1
 C        -0.184758        -0.375055         0.017799
 C         1.348834        -0.294736         0.010710
 O         2.037938         0.047325        -1.243796
 C         3.265105        -0.143775        -0.498886
 C         3.429939         1.069409         0.421091
 C         2.193354         0.844296         1.272448
 O         1.559365         1.904933         1.898060
 C         2.495528        -0.488120         1.935499
 C         2.452424        -1.116099         0.473879
 H        -0.549712        -0.476182         1.072335
 H        -0.556581         0.657438        -0.254553
 H        -0.523249        -1.090486        -0.688312
 H         4.140738        -0.461524        -1.144239
 H         4.345370         1.000305         1.079139
 H         3.351540         2.033953        -0.150674
 H         1.369888         2.528509         1.205986
 H         3.437745        -0.317951         2.374144
 H         1.685030        -1.019625         2.420184
 H         2.741503        -2.265722         0.503013
