19
Iteration:  3824charge 0 multiplicity 1
 C        -0.084951        -0.476469        -0.114612
 C         1.327888        -0.107832         0.141643
 O         1.947737         0.074593        -1.155705
 C         3.232454        -0.210937        -0.460173
 C         3.284963         1.134782         0.343947
 C         2.142288         0.747005         1.274583
 O         1.738016         1.960104         1.768845
 C         2.583033        -0.496969         1.990764
 C         2.473635        -1.119834         0.529176
 H        -0.681324        -0.817092         0.740628
 H        -0.530460         0.405827        -0.598280
 H        -0.048197        -1.133655        -1.018593
 H         3.941931        -0.551205        -1.254660
 H         4.207616         1.456231         0.857253
 H         3.083659         1.999034        -0.357182
 H         0.988743         1.841741         2.425751
 H         3.536364        -0.556833         2.529019
 H         1.706301        -0.892265         2.452704
 H         2.323551        -2.159759         0.425821
