19
Iteration:  3627charge 0 multiplicity 1
 C        -0.081419        -0.417854         0.039697
 C         1.349240        -0.092344         0.159796
 O         1.930457         0.109354        -1.134342
 C         3.294045        -0.155168        -0.512460
 C         3.486023         0.995978         0.359581
 C         2.114070         0.807530         1.170933
 O         1.642290         1.952892         1.829218
 C         2.457633        -0.508330         1.875540
 C         2.493274        -1.143753         0.427945
 H        -0.535059        -0.788438         0.942764
 H        -0.713653         0.381187        -0.364560
 H        -0.167726        -1.423040        -0.467786
 H         4.096592        -0.522952        -1.212911
 H         4.438933         1.018723         0.941391
 H         3.395134         2.044403        -0.119697
 H         0.758786         1.841685         2.134730
 H         3.268080        -0.433721         2.644145
 H         1.585946        -0.917434         2.330335
 H         2.365173        -2.240057         0.272706
