19
Iteration:   901
 C        -0.079392         0.020206        -0.018017
 C         1.397606        -0.073480         0.051398
 O         2.118262         0.138663        -1.267067
 C         3.287516        -0.221488        -0.432981
 C         3.541714         1.020292         0.482900
 C         2.120664         0.774744         1.178395
 O         1.344424         1.749046         1.841673
 C         2.558390        -0.699019         1.915725
 C         2.406975        -1.222019         0.502239
 H        -0.317683        -0.080981         1.103689
 H        -0.470726         1.030665        -0.310688
 H        -0.728951        -0.751627        -0.539260
 H         4.105844        -0.466591        -1.048090
 H         4.359880         0.808934         1.179680
 H         3.671292         1.997574        -0.008845
 H         0.441869         1.796705         1.583270
 H         3.641092        -0.737970         2.305720
 H         1.812715        -0.959952         2.668770
 H         2.286754        -2.254556         0.185747
