19
Iteration:  4223
 C        -0.150096        -0.292623         0.147962
 C         1.362816        -0.142740         0.075991
 O         2.059525         0.096018        -1.277139
 C         3.337419        -0.234088        -0.550719
 C         3.388160         1.054856         0.382467
 C         2.083946         0.806417         1.162853
 O         1.510289         1.910055         1.852349
 C         2.585898        -0.507245         1.944665
 C         2.531729        -1.176981         0.567314
 H        -0.532605        -0.478604         1.117004
 H        -0.579160         0.613971        -0.297162
 H        -0.600979        -0.989157        -0.579407
 H         4.135605        -0.582337        -1.276744
 H         4.280505         1.065386         0.985417
 H         3.179444         1.982267        -0.278621
 H         0.540450         1.728506         1.656884
 H         3.495019        -0.451442         2.427414
 H         1.693777        -0.911561         2.343426
 H         2.604891        -2.381657         0.405975
