19
Iteration:  4203
 C        -0.035390        -0.284874         0.120949
 C         1.402440        -0.171216         0.074552
 O         2.006826         0.059905        -1.201118
 C         3.253081        -0.149602        -0.434262
 C         3.416923         1.112221         0.346949
 C         2.120738         0.810114         1.187348
 O         1.549220         1.880376         1.712481
 C         2.467830        -0.536184         1.959732
 C         2.458760        -1.169257         0.474574
 H        -0.210871        -0.535369         1.161080
 H        -0.508888         0.669547         0.122831
 H        -0.449087        -1.097002        -0.619329
 H         4.069387        -0.450337        -1.109751
 H         4.314541         1.266121         0.989966
 H         3.370444         2.013894        -0.394559
 H         0.771001         1.495504         2.219098
 H         3.431631        -0.563925         2.482423
 H         1.641690        -1.096641         2.445150
 H         2.666893        -2.296663         0.228972
