19
Iteration:  4653charge 0 multiplicity 1
 C        -0.183089        -0.363066         0.098211
 C         1.349884        -0.232450         0.039690
 O         1.979026         0.131158        -1.216458
 C         3.327156        -0.127572        -0.468200
 C         3.420787         1.044496         0.411973
 C         2.133564         0.805290         1.179327
 O         1.450010         1.904978         1.776402
 C         2.570509        -0.568447         1.933611
 C         2.528316        -1.169579         0.518552
 H        -0.664602        -0.334473         1.162152
 H        -0.521002         0.558446        -0.324342
 H        -0.414551        -1.281017        -0.368044
 H         4.158118        -0.433583        -1.145833
 H         4.375278         1.196687         1.011941
 H         3.502052         1.990548        -0.085199
 H         2.087422         2.662561         1.669939
 H         3.478593        -0.574475         2.513482
 H         1.748345        -1.079595         2.425744
 H         2.615468        -2.169845         0.093647
