19
Iteration:  4382charge 0 multiplicity 1
 C        -0.137344        -0.258631         0.178557
 C         1.386131        -0.135140         0.181325
 O         2.010381        -0.028346        -1.265001
 C         3.255521        -0.204464        -0.498017
 C         3.401529         1.166020         0.388923
 C         2.145310         0.775972         1.164387
 O         1.392697         1.862992         1.728257
 C         2.598834        -0.541941         1.885150
 C         2.568442        -1.137332         0.444859
 H        -0.541318        -0.864079         1.026922
 H        -0.506574         0.732509        -0.009426
 H        -0.411360        -0.783541        -0.693359
 H         4.114696        -0.567123        -1.080399
 H         4.211673         1.158496         1.151452
 H         3.236751         1.975352        -0.260816
 H         1.965840         2.092117         2.524786
 H         3.418118        -0.225955         2.599623
 H         1.799189        -0.955568         2.535083
 H         2.640597        -2.115213         0.312828
