19
Iteration:  3746
 C        -0.081411        -0.184173         0.155718
 C         1.429387        -0.157075         0.074764
 O         2.021137         0.078997        -1.193630
 C         3.316993        -0.222488        -0.501360
 C         3.316816         1.078312         0.412730
 C         2.132380         0.757334         1.174516
 O         1.463307         1.931400         1.704691
 C         2.567128        -0.587201         1.907877
 C         2.518538        -1.194335         0.498177
 H        -0.254018        -0.438879         1.190002
 H        -0.261316         0.866486        -0.044358
 H        -0.779970        -0.979099        -0.360143
 H         4.233440        -0.592592        -1.067670
 H         4.217311         1.406902         0.907999
 H         3.063788         1.912939        -0.333388
 H         0.615639         1.539669         2.108529
 H         3.508925        -0.520344         2.534055
 H         1.885651        -1.181062         2.480151
 H         2.628134        -2.282076         0.203916
