19
Iteration:  4704
 C        -0.062583        -0.320890         0.081277
 C         1.410768        -0.175711         0.069914
 O         2.038287         0.102899        -1.219568
 C         3.285270        -0.238382        -0.504726
 C         3.462239         1.133759         0.245699
 C         2.112683         0.847704         1.159616
 O         1.470847         1.780380         2.008070
 C         2.479583        -0.472897         1.896529
 C         2.479368        -1.152108         0.531557
 H        -0.535421        -0.144116         1.039257
 H        -0.362533         0.481458        -0.616182
 H        -0.326461        -1.321662        -0.316888
 H         3.891878        -0.699022        -1.197312
 H         4.412873         1.166603         0.657726
 H         3.562454         1.949551        -0.459248
 H         0.978985         2.361439         1.442319
 H         3.315860        -0.477202         2.686749
 H         1.518788        -0.826316         2.479096
 H         2.396576        -2.303210         0.389992
