19
Iteration:  4858charge 0 multiplicity 1
 C        -0.095256        -0.316799         0.063252
 C         1.389663        -0.204556         0.054917
 O         1.930251         0.026794        -1.188370
 C         3.244059        -0.150253        -0.495226
 C         3.381863         1.113652         0.310207
 C         2.174652         0.796303         1.156350
 O         1.571091         1.919900         1.870261
 C         2.533799        -0.530860         1.952808
 C         2.596613        -1.148259         0.517160
 H        -0.589929        -0.400976         1.062883
 H        -0.316131         0.658774        -0.338846
 H        -0.422003        -1.110038        -0.569089
 H         3.915038        -0.428195        -1.332678
 H         4.176426         1.047271         1.047084
 H         3.296992         1.993726        -0.288695
 H         0.567421         1.893751         1.941732
 H         3.397987        -0.511436         2.609978
 H         1.638475        -0.952120         2.447051
 H         2.620500        -2.268103         0.269790
