19
Iteration:  2133
 C        -0.130325        -0.417743        -0.000425
 C         1.339885        -0.056779        -0.036046
 O         1.997527         0.347025        -1.276460
 C         3.316076        -0.201151        -0.402499
 C         3.531584         1.002284         0.625980
 C         2.165587         0.754397         1.214933
 O         1.684215         1.884382         1.876987
 C         2.373436        -0.687211         1.863257
 C         2.397880        -1.121691         0.396802
 H        -0.482322        -0.307653         1.055027
 H        -0.612544         0.208101        -0.649283
 H        -0.318445        -1.395094        -0.474139
 H         4.005180        -0.537893        -1.196592
 H         4.326727         0.829324         1.347334
 H         3.519031         1.923958         0.060789
 H         0.712633         2.097976         1.830971
 H         3.307744        -0.826885         2.444714
 H         1.501722        -1.013401         2.441116
 H         2.217310        -2.153761         0.059022
