19
Iteration:  2612
 C        -0.143142        -0.400733        -0.007586
 C         1.353749        -0.131309         0.103877
 O         1.968611         0.112587        -1.179432
 C         3.255935        -0.118890        -0.584131
 C         3.404463         1.048258         0.458508
 C         2.209773         0.794096         1.244111
 O         1.721588         1.923439         1.820701
 C         2.427251        -0.550369         1.933145
 C         2.450405        -1.155499         0.422575
 H        -0.473670        -0.513262         1.059554
 H        -0.574306         0.477237        -0.354769
 H        -0.365539        -1.242267        -0.649279
 H         4.084658        -0.573901        -1.136627
 H         4.321991         0.927605         1.101594
 H         3.484637         2.120828         0.223464
 H         0.791270         2.025022         1.825108
 H         3.243373        -0.721181         2.603218
 H         1.551006        -0.911163         2.411352
 H         2.404674        -2.206357         0.278991
