19
Iteration:  2042
 C        -0.115229         0.024614        -0.062420
 C         1.397570        -0.159057        -0.080489
 O         2.075924         0.047336        -1.278471
 C         3.278443        -0.141720        -0.431927
 C         3.481516         1.032874         0.429206
 C         2.060053         0.721447         1.274839
 O         1.417676         1.767352         1.963559
 C         2.525102        -0.559104         1.888362
 C         2.474403        -1.185272         0.443150
 H        -0.378346        -0.764345         0.563204
 H        -0.357165         1.021647         0.157333
 H        -0.463695        -0.187357        -1.066750
 H         4.151337        -0.532909        -0.955972
 H         4.324789         0.735780         1.002810
 H         3.511631         2.006495        -0.011247
 H         1.446060         1.493108         2.913010
 H         3.488799        -0.617289         2.434286
 H         1.627042        -0.915802         2.489740
 H         2.529251        -2.301315         0.448738
