19
Iteration:  3550charge 0 multiplicity 1
 C        -0.081587        -0.153129         0.164526
 C         1.451060        -0.205523        -0.014120
 O         2.041913         0.001905        -1.247001
 C         3.322766        -0.135258        -0.551660
 C         3.368853         1.156843         0.264295
 C         2.187781         0.788132         1.279369
 O         1.497844         1.792502         1.805565
 C         2.405772        -0.532571         1.990673
 C         2.502285        -1.167187         0.521134
 H        -0.425775        -0.405875         1.085114
 H        -0.414366         0.828939        -0.109436
 H        -0.621237        -0.727986        -0.670080
 H         3.898941        -0.560596        -1.316649
 H         4.257379         1.099373         0.870197
 H         3.135082         1.958497        -0.404981
 H         0.979620         1.564224         2.627333
 H         3.381286        -0.539057         2.565957
 H         1.667166        -0.895769         2.612523
 H         2.632707        -2.270631         0.417846
