19
Iteration:  1298charge 0 multiplicity 1
 C        -0.069660        -0.357398        -0.243224
 C         1.374463        -0.153602        -0.014053
 O         2.076207         0.206809        -1.185795
 C         3.257161        -0.146250        -0.448921
 C         3.392725         1.035217         0.413628
 C         2.114015         0.807649         1.250967
 O         1.643052         1.862828         2.010878
 C         2.381318        -0.604556         1.899787
 C         2.348451        -1.145791         0.528671
 H        -0.467310        -0.707675         0.726032
 H        -0.433527         0.683109        -0.561443
 H        -0.377775        -1.003185        -1.056229
 H         4.185397        -0.507739        -1.049591
 H         4.333169         0.971342         0.935334
 H         3.307646         1.906298        -0.267650
 H         2.372148         2.257962         2.454409
 H         3.289525        -0.826997         2.558589
 H         1.525319        -1.097167         2.422987
 H         2.178301        -2.227699         0.470718
