19
Iteration:  2766charge 0 multiplicity 1
 C        -0.111418        -0.369767         0.045247
 C         1.357985        -0.088393         0.035008
 O         1.979382         0.140743        -1.281398
 C         3.224249        -0.237650        -0.488814
 C         3.519271         0.985446         0.443481
 C         2.189755         0.869896         1.185298
 O         1.567907         1.830729         1.892346
 C         2.515060        -0.497434         1.902673
 C         2.453307        -1.087819         0.497891
 H        -0.377351        -0.230536         1.202759
 H        -0.692354         0.304236        -0.544503
 H        -0.326836        -1.406258        -0.150143
 H         4.039735        -0.391225        -1.203028
 H         4.362157         0.760182         1.121428
 H         3.567425         1.946508        -0.076816
 H         0.586122         1.930637         1.668363
 H         3.396062        -0.469982         2.522686
 H         1.699164        -0.955627         2.383565
 H         2.221055        -2.137956         0.320374
