19
Iteration:  3037
 C        -0.051140        -0.252477         0.127934
 C         1.415666        -0.054521         0.104198
 O         2.073516         0.145837        -1.204524
 C         3.246918        -0.240783        -0.541542
 C         3.453934         1.042042         0.278668
 C         2.147540         0.735897         1.184666
 O         1.447220         1.751786         1.816011
 C         2.461824        -0.520795         1.983418
 C         2.452249        -1.149186         0.552187
 H        -0.292894        -0.514057         1.207650
 H        -0.735946         0.592778        -0.079894
 H        -0.356599        -1.120805        -0.448725
 H         4.079364        -0.617793        -1.183247
 H         4.493044         1.134515         0.751607
 H         3.340438         1.965244        -0.348128
 H         1.349214         2.556096         1.321160
 H         3.422244        -0.326292         2.498639
 H         1.498723        -0.820773         2.474640
 H         2.351904        -2.158625         0.223262
