19
Iteration:  4451
 C        -0.074349        -0.369061         0.053776
 C         1.397715        -0.210348         0.098729
 O         1.945250         0.083586        -1.282694
 C         3.234179        -0.164811        -0.531743
 C         3.515323         1.094298         0.348302
 C         2.068911         0.808159         1.230666
 O         1.465929         1.850889         1.903012
 C         2.564909        -0.463511         1.966058
 C         2.490502        -1.135406         0.504424
 H        -0.392523        -0.367269         1.059820
 H        -0.561018         0.466212        -0.565340
 H        -0.459612        -1.374454        -0.284002
 H         4.050402        -0.636801        -1.180737
 H         4.315459         1.029701         1.017301
 H         3.477878         2.042789        -0.245666
 H         1.492629         2.650617         1.294375
 H         3.593129        -0.495165         2.437437
 H         2.046184        -1.001244         2.798940
 H         2.489474        -2.198856         0.174831
