19
Iteration:  3624charge 0 multiplicity 1
 C        -0.088009        -0.409841         0.045288
 C         1.348068        -0.082209         0.181094
 O         1.934249         0.122477        -1.140706
 C         3.275396        -0.186088        -0.496687
 C         3.494026         1.038260         0.342478
 C         2.147128         0.777290         1.168367
 O         1.634650         1.940353         1.816545
 C         2.481072        -0.514777         1.871846
 C         2.467992        -1.136257         0.433351
 H        -0.527658        -0.758204         0.987985
 H        -0.641197         0.390214        -0.419364
 H        -0.087799        -1.402677        -0.580319
 H         4.050437        -0.456048        -1.139534
 H         4.360394         0.971781         1.004970
 H         3.316118         1.974407        -0.105153
 H         0.679472         1.785407         2.054694
 H         3.259053        -0.415018         2.637742
 H         1.572767        -0.902020         2.344376
 H         2.419077        -2.240577         0.323516
