19
Iteration:  2673
 C        -0.099362        -0.319434        -0.031582
 C         1.387169        -0.022347         0.107096
 O         2.012548         0.077691        -1.265165
 C         3.296158        -0.223813        -0.452600
 C         3.472949         1.119145         0.235074
 C         2.157199         0.822807         1.204241
 O         1.598860         1.827835         1.900725
 C         2.415589        -0.519584         1.949138
 C         2.366049        -1.129809         0.591558
 H        -0.386319        -1.155441         0.599585
 H        -0.834550         0.548955         0.208122
 H        -0.400961        -0.766345        -1.037167
 H         4.163438        -0.755515        -0.910681
 H         4.504797         1.173509         0.657427
 H         3.302509         1.937977        -0.523951
 H         1.361079         1.342402         2.669459
 H         3.481197        -0.543820         2.344843
 H         1.599119        -0.943327         2.676097
 H         2.483784        -2.261058         0.383098
