19
Iteration:  3658charge 0 multiplicity 1
 C        -0.125212        -0.451508         0.086699
 C         1.314935        -0.218258        -0.017714
 O         2.041963         0.081777        -1.356069
 C         3.272947        -0.098616        -0.446248
 C         3.357551         1.080926         0.439177
 C         2.139836         0.812671         1.251422
 O         1.737849         1.964730         1.849592
 C         2.450537        -0.476403         1.896664
 C         2.389578        -1.145044         0.466492
 H        -0.292576        -0.604194         1.161133
 H        -0.899376         0.265305        -0.156414
 H        -0.480873        -1.426799        -0.559083
 H         4.143225        -0.629327        -0.831859
 H         4.378538         1.139635         0.823558
 H         3.247487         2.115036        -0.036206
 H         1.305618         1.777246         2.750307
 H         3.347137        -0.497046         2.579263
 H         1.598168        -0.863025         2.410795
 H         2.584138        -2.277675         0.303298
