19
Iteration:  2522charge 0 multiplicity 1
 C        -0.052566        -0.170032        -0.054078
 C         1.345654        -0.139693         0.099836
 O         1.991729         0.144782        -1.188780
 C         3.224514        -0.250617        -0.498147
 C         3.341277         1.078981         0.300661
 C         2.140875         0.731989         1.244745
 O         1.631421         1.874911         1.878589
 C         2.478800        -0.551749         1.970784
 C         2.508048        -1.256699         0.435907
 H        -0.616932        -0.427352         0.822522
 H        -0.584281         0.745561        -0.350329
 H        -0.124278        -0.940876        -0.890163
 H         4.116756        -0.260058        -1.135941
 H         4.272237         1.310026         0.912813
 H         3.063905         1.969896        -0.313407
 H         1.277015         1.579397         2.727312
 H         3.299222        -0.595682         2.660717
 H         1.668066        -0.872720         2.640452
 H         2.825003        -2.349527         0.361684
