19
Iteration:  3736charge 0 multiplicity 1
 C        -0.133547        -0.164071         0.170227
 C         1.348062        -0.193259         0.100405
 O         2.041711         0.052214        -1.187731
 C         3.276222        -0.186059        -0.388418
 C         3.378806         1.080393         0.361526
 C         2.102573         0.763787         1.209022
 O         1.467974         1.913006         1.695480
 C         2.619912        -0.606359         1.887318
 C         2.589012        -1.202948         0.443146
 H        -0.630961        -0.226210         1.135680
 H        -0.487826         0.852527        -0.195193
 H        -0.514500        -0.836508        -0.736037
 H         4.084984        -0.363506        -1.169658
 H         4.260121         1.164088         1.003348
 H         3.153516         1.950726        -0.375144
 H         0.583349         1.607827         2.080166
 H         3.648277        -0.472061         2.322479
 H         1.918619        -0.945333         2.609973
 H         2.665262        -2.295738         0.271510
