19
Iteration:  1617
 C        -0.178137        -0.233124        -0.124141
 C         1.364729        -0.086231        -0.031517
 O         2.091472         0.154402        -1.240491
 C         3.299712        -0.148329        -0.464918
 C         3.547095         0.971118         0.544517
 C         2.070331         0.729043         1.247442
 O         1.556297         1.747655         1.980080
 C         2.346101        -0.588468         1.857643
 C         2.431180        -1.042574         0.475319
 H        -0.465189        -0.903133         0.690657
 H        -0.852614         0.667366        -0.187105
 H        -0.255306        -0.811442        -1.013660
 H         4.099343        -0.512641        -1.223217
 H         4.411546         0.890802         1.168887
 H         3.574776         1.989284         0.019259
 H         2.163988         2.493525         1.942002
 H         3.222164        -0.572045         2.476960
 H         1.502291        -1.008698         2.464688
 H         2.663169        -2.104763         0.251739
