19
Iteration:  1637charge 0 multiplicity 1
 C        -0.029787        -0.391697        -0.077817
 C         1.392775        -0.005582         0.036703
 O         2.077171         0.319677        -1.228368
 C         3.281809        -0.221534        -0.495193
 C         3.510796         0.980323         0.492847
 C         2.184705         0.813491         1.205076
 O         1.493176         1.796240         1.927640
 C         2.321262        -0.588319         1.879045
 C         2.372078        -1.201654         0.442123
 H        -0.486681        -0.948855         0.794895
 H        -0.690647         0.575537        -0.047638
 H        -0.274101        -0.985192        -0.929425
 H         4.213672        -0.577171        -1.063862
 H         4.287615         0.595640         1.188983
 H         3.895669         1.919992        -0.051765
 H         2.089235         2.396839         2.492421
 H         2.995844        -0.634447         2.713159
 H         1.327659        -0.825478         2.332973
 H         2.116121        -2.204550         0.057341
