19
Iteration:  2976
 C        -0.158117        -0.500319        -0.213578
 C         1.346624        -0.156086         0.087154
 O         1.923588         0.075294        -1.252289
 C         3.196749        -0.199598        -0.454729
 C         3.384475         1.087727         0.347266
 C         2.160903         0.866163         1.243155
 O         1.754515         1.930762         2.040597
 C         2.505442        -0.492170         1.942666
 C         2.474405        -1.131760         0.585452
 H        -0.797317        -0.486057         0.620159
 H        -0.497829         0.393339        -0.849690
 H        -0.299140        -1.454321        -0.810136
 H         4.112333        -0.600109        -1.003332
 H         4.340615         1.189648         0.813112
 H         3.082512         1.862762        -0.357596
 H         1.801419         2.718600         1.445546
 H         3.361926        -0.423577         2.666387
 H         1.706660        -0.914320         2.508455
 H         2.420326        -2.289508         0.390278
