19
Iteration:  2099charge 0 multiplicity 1
 C        -0.084212        -0.239972        -0.032492
 C         1.411032        -0.100750         0.049118
 O         2.015725         0.264599        -1.239003
 C         3.285436        -0.202655        -0.498763
 C         3.499691         0.997587         0.502287
 C         2.176781         0.753673         1.240276
 O         1.558835         1.829607         1.879793
 C         2.432331        -0.662960         1.917184
 C         2.453966        -1.131577         0.435802
 H        -0.718187        -0.606368         0.765866
 H        -0.404153         0.721206        -0.129459
 H        -0.445564        -0.869360        -0.869892
 H         4.025481        -0.509767        -1.251730
 H         4.365520         1.029574         1.152030
 H         3.467115         1.967025         0.052349
 H         0.602817         1.622386         1.765510
 H         3.203791        -0.939282         2.657305
 H         1.477883        -0.907596         2.391185
 H         2.148021        -2.188351         0.325671
