19
Iteration:  2819charge 0 multiplicity 1
 C        -0.073018        -0.419655        -0.093392
 C         1.349242        -0.169718         0.132647
 O         1.988249         0.112143        -1.278522
 C         3.239923        -0.212921        -0.492823
 C         3.311394         1.086097         0.295453
 C         2.149747         0.774232         1.235933
 O         1.718206         1.893149         1.998974
 C         2.430306        -0.511408         1.984923
 C         2.443758        -1.143599         0.531607
 H        -0.706370        -0.911810         0.751712
 H        -0.591822         0.460147        -0.407903
 H        -0.142822        -1.123541        -0.920218
 H         4.044241        -0.628908        -1.074515
 H         4.206043         1.486203         0.779206
 H         3.050209         2.033859        -0.177714
 H         2.152755         2.701570         1.555497
 H         3.414415        -0.504601         2.503511
 H         1.492142        -0.574913         2.617772
 H         2.567234        -2.084214         0.194161
