19
Iteration:  4369
 C        -0.151933        -0.312124         0.155916
 C         1.375655        -0.134937         0.057195
 O         1.980344         0.027787        -1.192467
 C         3.330087        -0.150054        -0.502332
 C         3.469517         1.062164         0.319680
 C         2.102301         0.789534         1.143053
 O         1.377446         1.830329         1.708881
 C         2.620637        -0.497274         1.964500
 C         2.538801        -1.085704         0.563941
 H        -0.648950        -0.715755         1.083837
 H        -0.620973         0.607733         0.211682
 H        -0.440454        -0.857434        -0.720148
 H         4.055581        -0.477855        -1.181737
 H         4.449016         1.078863         0.900641
 H         3.468168         2.055268        -0.089558
 H         1.722077         2.084876         2.557015
 H         3.645878        -0.628961         2.333644
 H         1.853734        -1.058695         2.487362
 H         2.368277        -2.098463         0.195319
