19
Iteration:  2393charge 0 multiplicity 1
 C        -0.095282         0.012369         0.040285
 C         1.407338        -0.107195         0.010582
 O         2.030533         0.092502        -1.286346
 C         3.291238        -0.232632        -0.543804
 C         3.458043         1.065895         0.391643
 C         2.176312         0.807089         1.223257
 O         1.432254         1.683854         1.892483
 C         2.552386        -0.564580         1.906400
 C         2.424054        -1.190834         0.543192
 H        -0.414937        -0.020404         1.099689
 H        -0.325775         0.906620        -0.477851
 H        -0.641015        -0.850973        -0.445445
 H         4.141176        -0.667740        -1.175089
 H         4.241798         1.220463         1.177108
 H         3.450150         1.979537        -0.267138
 H         0.966257         1.180593         2.563849
 H         3.498107        -0.655033         2.443298
 H         1.623349        -0.885907         2.451332
 H         2.492334        -2.331893         0.537909
