19
Iteration:  2948charge 0 multiplicity 1
 C        -0.107426        -0.433748        -0.099183
 C         1.361465        -0.098265         0.173253
 O         1.980619         0.163602        -1.168015
 C         3.272644        -0.233301        -0.502984
 C         3.421518         1.042788         0.293723
 C         2.156706         0.851532         1.152713
 O         1.541414         1.835406         1.894972
 C         2.587310        -0.503532         1.944855
 C         2.380148        -1.126135         0.582330
 H        -0.814296        -0.433941         0.795726
 H        -0.533001         0.356581        -0.675474
 H        -0.247992        -1.350019        -0.655082
 H         4.056308        -0.668649        -1.076835
 H         4.315802         1.083041         0.987287
 H         3.336798         1.873922        -0.435044
 H         2.169019         2.542396         1.854975
 H         3.537052        -0.599093         2.475342
 H         1.752502        -0.856293         2.641139
 H         2.207622        -2.142048         0.397726
