19
Iteration:  1574
 C        -0.113866         0.000096        -0.166038
 C         1.416475        -0.036914         0.074874
 O         2.099119         0.136485        -1.176670
 C         3.315330        -0.186178        -0.402432
 C         3.376832         1.077604         0.370108
 C         2.143420         0.694113         1.226948
 O         1.515361         1.682778         1.988502
 C         2.419070        -0.664175         1.915953
 C         2.463872        -1.209308         0.456871
 H        -0.511114        -0.211439         0.780157
 H        -0.331694         0.975658        -0.560751
 H        -0.353961        -0.634419        -0.952853
 H         4.192093        -0.642104        -0.978937
 H         4.232185         1.193720         0.953288
 H         3.222789         2.040278        -0.093734
 H         0.801796         2.074371         1.407338
 H         3.401164        -0.624836         2.364289
 H         1.718979        -1.299752         2.513356
 H         2.550628        -2.308446         0.345704
