19
Iteration:  3724
 C        -0.220778        -0.121902         0.054063
 C         1.390853        -0.232527         0.146714
 O         1.990143         0.038933        -1.183736
 C         3.245293        -0.129417        -0.508205
 C         3.425369         1.132670         0.371174
 C         2.119029         0.712644         1.155247
 O         1.486630         1.830313         1.726063
 C         2.691123        -0.536811         1.917795
 C         2.535773        -1.161322         0.592350
 H        -0.742443        -0.534161         0.904513
 H        -0.549434         0.855757        -0.329102
 H        -0.531871        -1.026628        -0.673256
 H         4.137319        -0.534193        -1.083838
 H         4.279378         1.041717         1.038916
 H         3.651307         2.108923        -0.163828
 H         0.638659         1.797853         2.119617
 H         3.726247        -0.576541         2.372348
 H         2.002234        -0.971303         2.611920
 H         2.524888        -2.249952         0.245500
