19
Iteration:  3598
 C        -0.128525        -0.252008        -0.000409
 C         1.389423        -0.173169         0.059605
 O         1.990204         0.158495        -1.188258
 C         3.274398        -0.177404        -0.489825
 C         3.474187         1.041040         0.306712
 C         2.153799         0.773409         1.208958
 O         1.485393         1.887130         1.799236
 C         2.661190        -0.572505         2.006139
 C         2.408729        -1.177598         0.540761
 H        -0.179607        -0.551963         1.131651
 H        -0.721870         0.692390        -0.223606
 H        -0.558645        -1.043452        -0.580147
 H         4.125611        -0.553681        -1.173825
 H         4.466214         1.082799         0.803827
 H         2.971978         1.842912        -0.280233
 H         0.514807         1.747382         1.789225
 H         3.704457        -0.558639         2.361438
 H         2.012990        -0.907587         2.893753
 H         2.264448        -2.236483         0.389192
