19
Iteration:  1586
 C        -0.018668        -0.043374        -0.151192
 C         1.393024        -0.166875         0.005523
 O         2.098941         0.167240        -1.195793
 C         3.320785        -0.246535        -0.442234
 C         3.334066         1.089695         0.500327
 C         2.080222         0.692987         1.285450
 O         1.550844         1.792410         2.012280
 C         2.483265        -0.683223         1.852674
 C         2.412449        -1.183999         0.453825
 H        -0.683173        -0.330989         0.597083
 H        -0.281910         0.966165        -0.324244
 H        -0.308399        -0.692025        -0.960118
 H         4.168851        -0.570703        -1.092849
 H         4.149210         1.465352         1.032427
 H         2.994411         1.697020        -0.302874
 H         1.100457         2.403082         1.373050
 H         3.391750        -0.764924         2.470175
 H         1.620613        -1.023820         2.482789
 H         2.401176        -2.233978         0.093831
