19
Iteration:  3592
 C        -0.138313        -0.214165         0.051621
 C         1.367907        -0.153706         0.047044
 O         2.014805         0.109181        -1.183418
 C         3.306797        -0.213521        -0.500867
 C         3.454050         1.042640         0.300286
 C         2.133419         0.714312         1.219427
 O         1.452584         1.913906         1.824261
 C         2.665007        -0.551371         1.966641
 C         2.421888        -1.180473         0.523515
 H        -0.306552        -0.390198         1.088199
 H        -0.596460         0.722025        -0.148743
 H        -0.524135        -0.984149        -0.687712
 H         4.115661        -0.405694        -1.123035
 H         4.379897         1.141263         0.860171
 H         3.206937         1.927228        -0.284926
 H         0.536389         1.709095         1.819123
 H         3.691455        -0.372323         2.305193
 H         2.075531        -0.976849         2.750145
 H         2.419401        -2.283913         0.348041
