19
Iteration:  4375
 C        -0.157337        -0.313495         0.199697
 C         1.382097        -0.095087         0.112587
 O         1.993352        -0.014815        -1.228993
 C         3.298262        -0.179975        -0.466498
 C         3.465620         1.100628         0.341564
 C         2.116732         0.760677         1.128013
 O         1.374526         1.854973         1.717772
 C         2.618252        -0.511846         1.921022
 C         2.553818        -1.085623         0.494512
 H        -0.739353        -0.746025         0.990624
 H        -0.565610         0.803815         0.084049
 H        -0.394608        -0.809825        -0.810604
 H         4.090153        -0.549229        -1.208075
 H         4.292425         1.155029         1.021296
 H         3.282041         2.180464        -0.041156
 H         1.877768         2.024108         2.526551
 H         3.533981        -0.479722         2.573947
 H         1.908369        -1.113971         2.539246
 H         2.497871        -2.233791         0.195932
