19
Iteration:  4765charge 0 multiplicity 1
 C        -0.140556        -0.289669         0.102313
 C         1.403481        -0.114026         0.072519
 O         2.008749         0.097773        -1.161257
 C         3.295326        -0.235336        -0.502254
 C         3.376610         1.112036         0.333245
 C         2.068111         0.745478         1.246402
 O         1.460610         1.858812         1.797994
 C         2.559606        -0.565057         1.911332
 C         2.587233        -1.164656         0.524014
 H        -0.724279        -0.741044         0.929838
 H        -0.573036         0.764115        -0.035646
 H        -0.362375        -0.957935        -0.801095
 H         4.130241        -0.528323        -1.235158
 H         4.363563         1.239205         0.914522
 H         3.129725         1.943469        -0.449496
 H         1.857198         2.645776         1.476041
 H         3.503342        -0.571158         2.482445
 H         1.755101        -1.008600         2.475343
 H         2.613606        -2.180265         0.282699
