19
Iteration:  4215charge 0 multiplicity 1
 C        -0.133810        -0.266284         0.164464
 C         1.407250        -0.201858         0.020251
 O         2.021775         0.106165        -1.244057
 C         3.313294        -0.223960        -0.487245
 C         3.383370         1.058888         0.352413
 C         2.156246         0.734358         1.181464
 O         1.497245         1.923955         1.806814
 C         2.522267        -0.527336         1.925170
 C         2.574453        -1.117626         0.519361
 H        -0.472898        -0.653647         1.133471
 H        -0.554459         0.658777        -0.214465
 H        -0.627114        -1.056590        -0.570519
 H         4.159953        -0.604076        -1.042924
 H         4.347223         1.104571         0.936598
 H         3.184635         1.974792        -0.297223
 H         0.537027         1.810854         1.950994
 H         3.424009        -0.463173         2.593993
 H         1.679250        -0.770932         2.628409
 H         2.354204        -2.174254         0.234809
