19
Iteration:   454
 C        -0.104503        -0.281535        -0.230655
 C         1.372175        -0.024202        -0.044754
 O         2.047569         0.341942        -1.252682
 C         3.292765        -0.257501        -0.487645
 C         3.594942         0.894977         0.605284
 C         2.175943         0.767666         1.207079
 O         1.559954         1.800468         2.021349
 C         2.395907        -0.576778         1.903775
 C         2.299929        -1.158563         0.557075
 H        -0.448253        -0.716145         0.687192
 H        -0.655940         0.594555        -0.434179
 H        -0.238287        -0.933611        -1.062945
 H         3.964760        -0.567047        -1.244122
 H         4.247179         0.347604         1.257275
 H         4.014794         1.844259         0.295782
 H         1.091014         2.419443         1.373915
 H         3.197533        -0.626964         2.592239
 H         1.520042        -1.000504         2.362001
 H         2.268640        -2.220011         0.232206
