19
Iteration:   860
 C        -0.101377        -0.050148        -0.054817
 C         1.399599        -0.182463        -0.006139
 O         2.084439         0.212884        -1.147390
 C         3.256226        -0.136341        -0.475238
 C         3.392421         1.040903         0.456253
 C         2.145101         0.698325         1.161596
 O         1.552952         1.787136         1.833028
 C         2.477883        -0.699029         1.994081
 C         2.479602        -1.239985         0.514853
 H        -0.503012        -0.256069         0.892125
 H        -0.301840         0.997570        -0.234476
 H        -0.570298        -0.518803        -0.923079
 H         4.147652        -0.475872        -1.137853
 H         4.308878         1.108835         1.081267
 H         3.212889         1.899737        -0.212252
 H         0.603064         1.821332         1.524195
 H         3.307134        -0.694660         2.705694
 H         1.604253        -1.005760         2.529214
 H         2.412986        -2.275287         0.194097
