19
Iteration:  4459charge 0 multiplicity 1
 C        -0.123971        -0.403221         0.101212
 C         1.389050        -0.193741         0.075562
 O         1.967323         0.140119        -1.285907
 C         3.201955        -0.169585        -0.489718
 C         3.470128         1.056436         0.322396
 C         2.099708         0.792803         1.189632
 O         1.518117         1.860143         1.889260
 C         2.541710        -0.465755         2.047975
 C         2.585903        -1.150266         0.508028
 H        -0.627300        -0.259838         1.080459
 H        -0.472569         0.333225        -0.627164
 H        -0.309588        -1.297508        -0.441423
 H         3.955799        -0.601744        -1.235769
 H         4.311183         1.102225         1.121368
 H         3.374236         1.997161        -0.182241
 H         1.239358         2.477431         1.140970
 H         3.649883        -0.461279         2.203828
 H         1.709158        -1.040192         2.534014
 H         2.432819        -2.074233         0.170843
