19
Iteration:  4644charge 0 multiplicity 1
 C        -0.075864        -0.335732         0.093500
 C         1.415950        -0.183448         0.006152
 O         1.929923         0.142389        -1.193608
 C         3.288498        -0.194614        -0.447795
 C         3.409453         1.092158         0.417232
 C         2.134291         0.777926         1.210057
 O         1.435845         1.889134         1.773572
 C         2.568207        -0.541523         1.942594
 C         2.533275        -1.177699         0.465453
 H        -0.364745        -0.526072         1.173414
 H        -0.667670         0.430541        -0.424719
 H        -0.438314        -1.185724        -0.501758
 H         4.081290        -0.487192        -1.244153
 H         4.356413         0.841016         0.995514
 H         3.267207         1.880212        -0.341165
 H         2.037611         2.671153         1.835488
 H         3.395451        -0.522282         2.629567
 H         1.695256        -0.848006         2.434504
 H         2.497342        -2.221854         0.388465
