19
Iteration:   403
 C        -0.107533         0.024426        -0.067477
 C         1.343965        -0.191172        -0.049345
 O         2.239421         0.179112        -1.279806
 C         3.276866        -0.175647        -0.399404
 C         3.362270         1.004598         0.580243
 C         2.120988         0.693759         1.210193
 O         1.552400         1.731561         1.955262
 C         2.333753        -0.671914         1.839384
 C         2.447397        -1.201377         0.468877
 H        -0.366412        -0.136478         1.038521
 H        -0.356728         1.098242        -0.476230
 H        -0.642074        -0.766467        -0.692810
 H         4.129889        -0.525045        -1.033027
 H         4.251835         1.042618         1.261895
 H         3.213249         1.933593        -0.042683
 H         1.588675         2.552215         1.417373
 H         3.203336        -0.583943         2.600345
 H         1.466590        -1.033185         2.440051
 H         2.520214        -2.174895         0.163830
