19
Iteration:  2515
 C        -0.123705        -0.237489        -0.107921
 C         1.403609        -0.094154         0.087961
 O         1.957787         0.164447        -1.225177
 C         3.235044        -0.227425        -0.445466
 C         3.335431         1.084890         0.331256
 C         2.182336         0.726486         1.192962
 O         1.656420         1.881646         1.908423
 C         2.485089        -0.564731         1.969761
 C         2.485483        -1.218742         0.507001
 H        -0.454479        -0.760363         0.858715
 H        -0.581806         0.696295        -0.318631
 H        -0.220339        -0.972245        -0.885042
 H         4.041451        -0.635638        -1.148171
 H         4.255935         1.292571         0.884918
 H         3.235123         1.950428        -0.358649
 H         1.268545         1.547336         2.699559
 H         3.428103        -0.562939         2.570083
 H         1.591955        -0.863837         2.547597
 H         2.575367        -2.269634         0.262297
