19
Iteration:  1601
 C        -0.139639        -0.186021        -0.173682
 C         1.385432        -0.149512        -0.024859
 O         2.125171         0.160859        -1.271007
 C         3.268875        -0.149633        -0.417595
 C         3.349854         1.059280         0.483656
 C         2.135591         0.756760         1.239470
 O         1.550419         1.831581         2.040099
 C         2.452585        -0.668406         1.948346
 C         2.444383        -1.235805         0.427513
 H        -0.516243        -0.620983         0.802695
 H        -0.370777         0.909120        -0.220817
 H        -0.573330        -0.563618        -1.164386
 H         4.162405        -0.408006        -0.936565
 H         4.246628         0.979383         1.226466
 H         3.443278         2.042298         0.038917
 H         1.792060         2.649995         1.509609
 H         3.413312        -0.861496         2.504321
 H         1.596548        -1.077447         2.470052
 H         2.237171        -2.273099         0.147759
