19
Iteration:    59
 C         0.038253        -0.115613        -0.028875
 C         1.523513         0.007946         0.089848
 O         2.054650         0.154763        -1.208138
 C         3.362433        -0.286705        -0.398282
 C         3.523501         1.025206         0.401240
 C         2.181446         0.786823         1.168114
 O         1.485550         1.826320         1.825000
 C         2.211568        -0.673339         1.918195
 C         2.368091        -1.178635         0.492450
 H        -0.600651        -0.330458         0.883789
 H        -0.426562         0.771760        -0.549963
 H        -0.105233        -0.940952        -0.789644
 H         4.183963        -0.687241        -1.032068
 H         4.428662         1.310187         0.941062
 H         3.326899         1.882484        -0.263867
 H         0.879003         1.371443         2.457281
 H         2.896082        -0.974122         2.747461
 H         1.093538        -0.813754         2.334184
 H         2.189921        -2.289515         0.161540
