19
Iteration:  2029charge 0 multiplicity 1
 C        -0.111272        -0.081208        -0.122128
 C         1.378992        -0.087420         0.067339
 O         2.085070         0.084479        -1.204224
 C         3.314122        -0.168240        -0.536926
 C         3.456170         1.044709         0.457117
 C         2.209826         0.786431         1.161085
 O         1.425825         1.711713         1.919608
 C         2.458186        -0.626962         1.897644
 C         2.432978        -1.127655         0.533479
 H        -0.722680        -0.589113         0.578977
 H        -0.464841         0.941487         0.224473
 H        -0.505827        -0.337059        -1.059107
 H         4.134184        -0.387296        -1.243093
 H         4.302375         0.988002         1.136161
 H         3.640213         1.991172        -0.095367
 H         1.527647         1.526026         2.858109
 H         3.337943        -0.793374         2.547614
 H         1.567910        -1.059268         2.452444
 H         2.345633        -2.118967         0.131110
