19
Iteration:  1506
 C        -0.154473        -0.258470         0.003369
 C         1.391468        -0.115289         0.023172
 O         2.127585         0.304037        -1.226497
 C         3.318192        -0.178880        -0.413240
 C         3.443470         1.097092         0.535450
 C         2.176320         0.647542         1.302563
 O         1.591598         1.776346         1.858573
 C         2.285582        -0.674905         1.851158
 C         2.442193        -1.189244         0.424914
 H        -0.455100        -0.266285         1.054943
 H        -0.534477         0.589225        -0.573264
 H        -0.551347        -1.015760        -0.586210
 H         4.190743        -0.470920        -1.079286
 H         4.420033         1.243537         0.983627
 H         3.313111         2.101881         0.042578
 H         1.482195         2.432398         1.097663
 H         3.187306        -0.898218         2.408884
 H         1.352034        -0.995410         2.314514
 H         2.267000        -2.162722        -0.024427
