19
Iteration:  1712charge 0 multiplicity 1
 C        -0.032502         0.058800         0.005208
 C         1.441934        -0.054108         0.079653
 O         2.091858         0.142246        -1.274036
 C         3.332093        -0.221294        -0.469637
 C         3.391896         1.020330         0.356711
 C         2.136759         0.683637         1.231770
 O         1.349767         1.654461         1.918430
 C         2.432802        -0.588001         1.939269
 C         2.502937        -1.171560         0.425889
 H        -0.618559        -0.027546         0.946808
 H        -0.372733         0.918303        -0.657984
 H        -0.233296        -0.707991        -0.709977
 H         4.203152        -0.602587        -1.052452
 H         4.269979         1.071419         1.038609
 H         3.546375         1.963143        -0.198977
 H         1.466696         1.712330         2.841788
 H         3.282968        -0.785847         2.584350
 H         1.513036        -1.027496         2.359546
 H         2.407104        -2.219037         0.180766
