19
Iteration:  1571charge 0 multiplicity 1
 C        -0.136235         0.010454        -0.171075
 C         1.417353        -0.033615         0.068027
 O         2.104830         0.133672        -1.190563
 C         3.292146        -0.181130        -0.394669
 C         3.413768         1.073932         0.351496
 C         2.144865         0.703303         1.210189
 O         1.496244         1.653836         1.979842
 C         2.435507        -0.657660         1.930782
 C         2.486740        -1.198728         0.479906
 H        -0.591581        -0.173564         0.851334
 H        -0.380929         1.068919        -0.550948
 H        -0.409540        -0.744708        -0.907214
 H         4.195991        -0.528352        -1.006833
 H         4.318815         1.034305         1.046060
 H         3.278763         2.115892        -0.078278
 H         0.776255         1.984467         1.487580
 H         3.390813        -0.707364         2.464262
 H         1.695437        -1.192747         2.552282
 H         2.468246        -2.282112         0.297008
