19
Iteration:   726charge 0 multiplicity 1
 C        -0.110958         0.062079         0.088770
 C         1.368091        -0.065593        -0.002014
 O         2.254074         0.166496        -1.216970
 C         3.338998        -0.292178        -0.317340
 C         3.502203         1.077128         0.406044
 C         2.138134         0.746346         1.139657
 O         1.406209         1.665688         1.921459
 C         2.410818        -0.616396         1.853266
 C         2.367089        -1.241394         0.381987
 H        -0.534920        -0.052971         1.119751
 H        -0.381777         0.987513        -0.366567
 H        -0.603221        -0.576156        -0.613457
 H         4.173539        -0.564674        -0.931549
 H         4.346254         1.289843         1.015959
 H         3.568049         1.650573        -0.520368
 H         0.454971         1.664599         1.681262
 H         3.392102        -0.827901         2.314289
 H         1.637120        -0.829969         2.590975
 H         2.224227        -2.320419         0.308635
