19
Iteration:  4228charge 0 multiplicity 1
 C        -0.149690        -0.300215         0.098183
 C         1.362694        -0.116652         0.111674
 O         2.073983         0.070963        -1.273049
 C         3.300448        -0.221568        -0.558051
 C         3.391990         1.055661         0.367037
 C         2.068925         0.833757         1.157715
 O         1.514968         1.881360         1.866079
 C         2.590302        -0.481545         1.926068
 C         2.503953        -1.215168         0.554688
 H        -0.557168        -0.293068         1.177680
 H        -0.591787         0.702041        -0.135988
 H        -0.464962        -1.164405        -0.582083
 H         4.045236        -0.468325        -1.287094
 H         4.274918         1.191764         1.079648
 H         3.393170         1.968380        -0.223746
 H         0.601662         1.796005         1.554895
 H         3.608468        -0.480870         2.503287
 H         1.770965        -1.115722         2.451759
 H         2.681695        -2.243422         0.555428
