19
Iteration:  4659
 C        -0.224087        -0.377713         0.107026
 C         1.331508        -0.230006         0.139343
 O         2.046292         0.108471        -1.235877
 C         3.284751        -0.111554        -0.504148
 C         3.454352         1.066581         0.406061
 C         2.118568         0.776640         1.173697
 O         1.481022         1.896520         1.772925
 C         2.522818        -0.583435         1.897748
 C         2.536650        -1.121311         0.513698
 H        -0.634213        -0.258086         1.058896
 H        -0.516443         0.595414        -0.399953
 H        -0.585179        -1.341601        -0.386443
 H         4.160874        -0.384842        -1.063608
 H         4.234734         1.243904         1.133880
 H         3.517938         2.117120        -0.047048
 H         2.005001         2.651618         1.597273
 H         3.545263        -0.638345         2.390006
 H         1.862427        -1.137523         2.665485
 H         2.675236        -2.181800         0.126996
