19
Iteration:  4778charge 0 multiplicity 1
 C        -0.113412        -0.299073         0.091447
 C         1.360003        -0.163797         0.140196
 O         1.967191         0.086867        -1.228857
 C         3.250558        -0.118387        -0.471319
 C         3.456467         1.105533         0.320213
 C         2.182095         0.740421         1.115615
 O         1.466248         1.764798         1.755196
 C         2.505087        -0.550638         1.997093
 C         2.535219        -1.083783         0.545943
 H        -0.274559        -0.816471         0.982505
 H        -0.697709         0.652116         0.009346
 H        -0.422478        -0.857594        -0.831779
 H         3.990217        -0.536251        -1.072826
 H         4.328474         1.160542         0.968204
 H         3.319682         2.127626        -0.218742
 H         2.119615         2.551396         1.812915
 H         3.297951        -0.452515         2.669604
 H         1.740488        -1.071791         2.482700
 H         2.549299        -2.172582         0.374895
