19
Iteration:  4540charge 0 multiplicity 1
 C        -0.077102        -0.315240         0.094666
 C         1.401543        -0.238541         0.111061
 O         1.952157         0.074816        -1.244195
 C         3.303394        -0.170916        -0.424151
 C         3.392233         1.116998         0.330259
 C         2.174315         0.858552         1.146648
 O         1.512416         1.872148         1.803384
 C         2.575959        -0.487925         1.881456
 C         2.459322        -1.184497         0.529659
 H        -0.489585        -0.663964         1.002842
 H        -0.421848         0.750065         0.101043
 H        -0.530920        -0.953639        -0.703486
 H         4.147204        -0.537401        -0.985601
 H         4.211062         1.258463         0.946450
 H         3.438502         1.979392        -0.348404
 H         0.668526         1.529037         2.238631
 H         3.525723        -0.599140         2.470186
 H         1.740538        -0.788785         2.594873
 H         2.528310        -2.284490         0.168064
