19
Iteration:  1295
 C        -0.019417        -0.337818        -0.232193
 C         1.331817        -0.146638        -0.010924
 O         2.089887         0.206964        -1.186477
 C         3.254684        -0.186304        -0.460363
 C         3.404095         1.074543         0.415710
 C         2.117662         0.811158         1.248272
 O         1.621216         1.853460         2.010037
 C         2.390723        -0.629467         1.904487
 C         2.328442        -1.138577         0.518554
 H        -0.485623        -0.697194         0.735197
 H        -0.504727         0.698382        -0.491273
 H        -0.374374        -1.048137        -1.065842
 H         4.124424        -0.504367        -0.956651
 H         4.321293         1.060771         1.045780
 H         3.312824         1.801802        -0.397447
 H         2.418803         2.304825         2.404672
 H         3.369077        -0.851268         2.504531
 H         1.544807        -1.089233         2.445751
 H         2.202278        -2.219651         0.472098
