19
Iteration:  2645
 C        -0.144683        -0.458450        -0.129104
 C         1.341853        -0.110187         0.031563
 O         1.972214         0.152232        -1.184211
 C         3.226429        -0.268721        -0.491732
 C         3.377879         1.056175         0.436951
 C         2.150513         0.842605         1.283784
 O         1.766219         2.028345         1.874173
 C         2.474018        -0.497353         1.871800
 C         2.426414        -1.180753         0.498004
 H        -0.359257        -1.181964         0.741446
 H        -0.825331         0.323668         0.013620
 H        -0.371588        -0.947408        -1.062433
 H         4.049340        -0.698147        -1.083976
 H         4.265262         0.902970         1.058008
 H         3.264364         1.923118        -0.211012
 H         1.228720         1.724491         2.638202
 H         3.384689        -0.574855         2.420481
 H         1.729699        -0.947936         2.487937
 H         2.599786        -2.217607         0.412386
