19
Iteration:   291charge 0 multiplicity 1
 C        -0.079299        -0.220213        -0.108424
 C         1.410970        -0.057754        -0.027208
 O         2.095682         0.192840        -1.274422
 C         3.278922        -0.177247        -0.447837
 C         3.450865         1.037434         0.494834
 C         2.149449         0.684625         1.181766
 O         1.737000         1.857547         1.964961
 C         2.134962        -0.668044         1.929165
 C         2.488389        -1.147430         0.486228
 H        -0.296545        -0.702483         0.875240
 H        -0.859375         0.605968        -0.206415
 H        -0.318177        -0.975008        -0.919830
 H         4.022641        -0.406209        -1.179823
 H         4.319284         0.930488         1.163983
 H         3.422268         1.985974        -0.041771
 H         0.843408         1.942314         2.260118
 H         2.778940        -0.619965         2.835338
 H         1.121181        -1.033630         2.249105
 H         2.652433        -2.165506         0.283087
