19
Iteration:  3457charge 0 multiplicity 1
 C        -0.098836        -0.341686         0.061119
 C         1.362397        -0.196918         0.030720
 O         2.053072         0.110510        -1.237939
 C         3.261960        -0.170717        -0.481362
 C         3.380464         1.120001         0.420412
 C         2.130452         0.796571         1.231855
 O         1.604035         1.867544         1.847707
 C         2.509713        -0.550006         1.936477
 C         2.414878        -1.196917         0.487064
 H        -0.516386        -0.525008         1.135489
 H        -0.604743         0.540996        -0.427281
 H        -0.455642        -1.131482        -0.556527
 H         4.195383        -0.321214        -1.141908
 H         4.265201         1.070168         1.063821
 H         3.259955         1.955074        -0.317290
 H         1.618167         2.693874         1.337983
 H         3.350656        -0.602247         2.614438
 H         1.653342        -0.873079         2.627279
 H         2.196522        -2.203713         0.146900
