19
Iteration:  2857
 C        -0.140370        -0.231102         0.099202
 C         1.349618        -0.157160         0.165389
 O         1.996913         0.067898        -1.216934
 C         3.238309        -0.248213        -0.485904
 C         3.507433         1.056933         0.411909
 C         2.167077         0.839738         1.114398
 O         1.381440         1.825770         1.783068
 C         2.595570        -0.484831         1.904916
 C         2.481026        -1.163143         0.444253
 H        -0.519688        -0.744045         0.909016
 H        -0.549765         0.815852        -0.017113
 H        -0.250886        -0.791897        -0.857106
 H         4.138432        -0.708680        -0.986609
 H         4.296598         0.949373         1.151709
 H         3.396758         1.927579        -0.252678
 H         1.819498         2.317226         2.499265
 H         3.605871        -0.447192         2.291143
 H         2.010972        -0.869678         2.705017
 H         2.607725        -2.315656         0.115662
