19
Iteration:   224
 C        -0.127234        -0.051762        -0.144851
 C         1.382069        -0.146749         0.108990
 O         2.033892         0.206181        -1.145378
 C         3.313852        -0.193839        -0.514078
 C         3.565635         1.018537         0.478122
 C         2.156655         0.725589         1.237608
 O         1.493439         1.782565         1.836183
 C         2.428850        -0.608652         1.956590
 C         2.454116        -1.249894         0.460228
 H        -0.786121        -0.101253         0.742873
 H        -0.238158         1.000768        -0.554910
 H        -0.347014        -0.664078        -1.057989
 H         4.044031        -0.624722        -1.222850
 H         4.386333         1.040524         1.199081
 H         3.627278         1.924389        -0.110674
 H         0.559041         1.460473         2.041676
 H         3.245361        -0.710675         2.678311
 H         1.575784        -0.958827         2.602564
 H         2.418774        -2.325025         0.113897
