19
Iteration:   977charge 0 multiplicity 1
 C        -0.226339        -0.404555        -0.288208
 C         1.317147        -0.126388        -0.033036
 O         2.097673         0.260469        -1.202355
 C         3.288734        -0.221302        -0.372328
 C         3.427489         0.976904         0.489586
 C         2.093363         0.788820         1.280685
 O         1.820091         1.942971         1.966751
 C         2.420078        -0.546462         1.912114
 C         2.335010        -1.149780         0.426215
 H        -0.811090        -0.887318         0.551889
 H        -0.916310         0.364825        -0.675361
 H        -0.199125        -1.094828        -1.195511
 H         3.994659        -0.564818        -1.012811
 H         4.182341         0.694204         1.218227
 H         3.676233         1.925645         0.009247
 H         1.242216         1.969105         2.786372
 H         3.350243        -0.549086         2.610281
 H         1.544629        -0.908905         2.484750
 H         2.402072        -2.218001         0.483672
