19
Iteration:  3969
 C        -0.105019        -0.388944         0.019811
 C         1.398134        -0.137407         0.041180
 O         2.081684         0.105051        -1.178015
 C         3.242376        -0.251426        -0.464056
 C         3.371854         1.088427         0.277445
 C         2.123935         0.801839         1.151248
 O         1.492421         1.809971         1.849072
 C         2.518788        -0.454555         1.961682
 C         2.459773        -1.079570         0.562137
 H        -0.437448        -0.824910         1.024351
 H        -0.677191         0.596022         0.027924
 H        -0.281303        -0.983987        -0.813359
 H         4.123384        -0.576738        -0.986747
 H         4.386335         1.224065         0.780816
 H         3.095062         1.864375        -0.425307
 H         2.216194         2.282328         2.259725
 H         3.480133        -0.650748         2.360634
 H         1.596233        -0.619904         2.565528
 H         2.196884        -2.113125         0.347051
