19
Iteration:  2878
 C        -0.033748        -0.142003         0.233208
 C         1.421705        -0.101918         0.020618
 O         2.028630         0.148819        -1.199064
 C         3.329369        -0.225043        -0.512392
 C         3.434639         1.048185         0.282688
 C         2.159445         0.714341         1.207926
 O         1.325725         1.757566         1.621636
 C         2.553115        -0.585369         1.934841
 C         2.484034        -1.138026         0.584304
 H        -0.125399        -0.501497         1.224105
 H        -0.441835         0.909760         0.309393
 H        -0.673355        -0.711640        -0.462926
 H         4.183022        -0.439395        -1.230963
 H         4.268246         1.068328         0.936899
 H         3.070422         1.930149        -0.220735
 H         1.493470         2.046768         2.521507
 H         3.376347        -0.741462         2.611087
 H         1.694254        -0.817281         2.485277
 H         2.305124        -2.311586         0.507224
