19
Iteration:  3191charge 0 multiplicity 1
 C        -0.049160        -0.342786         0.070137
 C         1.411511        -0.095018         0.057024
 O         1.966245         0.153142        -1.217637
 C         3.284081        -0.168178        -0.521673
 C         3.376463         0.997550         0.339779
 C         2.116990         0.719555         1.209428
 O         1.564085         1.816739         1.846094
 C         2.452943        -0.519011         1.957847
 C         2.527672        -1.099047         0.549249
 H        -0.585114        -0.258004         1.006806
 H        -0.567562         0.504006        -0.484479
 H        -0.427813        -1.272250        -0.450550
 H         4.167506        -0.419216        -1.130909
 H         4.368195         1.050180         0.892852
 H         3.211409         1.944946        -0.214119
 H         1.405174         2.566158         1.216847
 H         3.367812        -0.571867         2.629870
 H         1.664341        -0.992143         2.539083
 H         2.470591        -2.208800         0.472728
