19
Iteration:  3382
 C        -0.220814        -0.208018         0.056004
 C         1.321603        -0.137016         0.149340
 O         2.086454         0.081476        -1.204054
 C         3.307380        -0.203150        -0.478307
 C         3.394805         1.054239         0.340305
 C         2.169289         0.768768         1.192142
 O         1.433960         1.819012         1.828876
 C         2.632944        -0.579372         1.955010
 C         2.548090        -1.160160         0.466564
 H        -0.643801        -0.209766         1.112244
 H        -0.607802         0.743389        -0.292387
 H        -0.601799        -0.879346        -0.637193
 H         4.167009        -0.649631        -1.075722
 H         4.223602         1.122747         1.050894
 H         3.208810         1.926025        -0.314785
 H         1.372621         2.555457         1.175361
 H         3.579180        -0.511977         2.446978
 H         1.822010        -0.978006         2.687753
 H         2.321326        -2.177551         0.153097
