19
Iteration:  3289charge 0 multiplicity 1
 C        -0.201025        -0.325716        -0.015525
 C         1.347574        -0.130920         0.120989
 O         2.037174         0.053124        -1.296560
 C         3.221424        -0.120225        -0.574910
 C         3.416611         1.035720         0.450641
 C         2.088105         0.798488         1.215077
 O         1.549632         1.869121         1.823693
 C         2.579437        -0.547788         1.952001
 C         2.556645        -1.168686         0.619864
 H        -0.691015        -0.658220         0.854819
 H        -0.842104         0.554267        -0.153154
 H        -0.670389        -0.987273        -0.808100
 H         4.021602        -0.347759        -1.261712
 H         4.319489         0.842659         1.058867
 H         3.316457         1.999273        -0.064258
 H         2.097030         2.668549         1.669041
 H         3.558247        -0.235578         2.423069
 H         1.967345        -1.037913         2.666316
 H         2.432776        -2.268546         0.434383
