19
Iteration:  2566charge 0 multiplicity 1
 C        -0.149820        -0.079845         0.214673
 C         1.428434        -0.089015         0.026021
 O         2.103030         0.068743        -1.262220
 C         3.260311        -0.182018        -0.494980
 C         3.453947         1.009167         0.459858
 C         2.160547         0.754701         1.183324
 O         1.415978         1.762669         1.802284
 C         2.572544        -0.524982         1.823661
 C         2.414929        -1.176632         0.487578
 H        -0.422320         0.254571         1.216467
 H        -0.556312         0.702410        -0.483178
 H        -0.496951        -1.088135        -0.145255
 H         4.064466        -0.504486        -1.196424
 H         4.456374         1.098406         0.941542
 H         3.476533         1.886078        -0.234007
 H         0.619900         1.374595         2.186415
 H         3.542426        -0.490721         2.285285
 H         1.958496        -1.008857         2.595021
 H         2.368643        -2.284301         0.258425
