19
Iteration:   556
 C        -0.068181         0.036493        -0.113941
 C         1.381804        -0.121417         0.106319
 O         2.110989         0.229985        -1.163330
 C         3.276476        -0.226480        -0.492832
 C         3.611199         1.013116         0.454398
 C         2.123170         0.643923         1.272950
 O         1.344637         1.748174         1.805524
 C         2.501705        -0.630520         1.909367
 C         2.396863        -1.179296         0.469084
 H        -0.683143         0.122179         0.833252
 H        -0.328162         1.096595        -0.452802
 H        -0.593334        -0.720969        -0.754030
 H         4.118927        -0.821040        -0.988520
 H         4.593157         0.895907         1.002574
 H         3.730002         1.884187        -0.227630
 H         0.764257         1.442264         2.478609
 H         3.513164        -0.878657         2.345877
 H         1.678960        -1.124019         2.469741
 H         2.244691        -2.194303         0.225630
