19
Iteration:  4274
 C        -0.108881        -0.314665         0.018025
 C         1.386779        -0.166079         0.085718
 O         2.044070         0.078696        -1.174705
 C         3.199131        -0.201657        -0.531063
 C         3.371111         1.114479         0.277881
 C         2.132610         0.828917         1.164557
 O         1.492236         1.806183         1.918774
 C         2.531550        -0.525577         1.956689
 C         2.574127        -1.158053         0.576749
 H        -0.597767        -0.292330         1.050407
 H        -0.797832         0.428871        -0.567086
 H        -0.202622        -1.289571        -0.398792
 H         4.021608        -0.594989        -1.159259
 H         4.401138         1.167180         0.709414
 H         3.233454         1.937385        -0.391977
 H         1.782871         2.639863         1.435214
 H         3.542241        -0.408707         2.459107
 H         1.599812        -0.763411         2.523535
 H         2.402800        -2.136559         0.331705
