19
Iteration:  3404
 C         0.013066        -0.161101         0.025898
 C         1.432219        -0.118318         0.052084
 O         1.942524         0.097569        -1.204808
 C         3.265886        -0.214009        -0.508088
 C         3.450669         1.109807         0.264152
 C         2.209990         0.759476         1.213723
 O         1.432978         1.688265         1.886457
 C         2.536634        -0.514118         1.945500
 C         2.415717        -1.176242         0.632472
 H        -0.451741        -0.200664         1.057691
 H        -0.425242         0.724530        -0.405763
 H        -0.192748        -0.870874        -0.700209
 H         4.031119        -0.773032        -1.154453
 H         4.412694         1.249815         0.796759
 H         3.158981         1.971602        -0.350561
 H         0.897123         2.220539         1.274927
 H         3.458544        -0.607398         2.468798
 H         1.620069        -0.517792         2.666191
 H         2.596299        -2.225316         0.409966
