19
Iteration:  2426
 C        -0.116206        -0.191709         0.070218
 C         1.383992        -0.131070         0.058528
 O         1.996756         0.209827        -1.201501
 C         3.289045        -0.197280        -0.465340
 C         3.469078         1.009146         0.450786
 C         2.140712         0.740235         1.279891
 O         1.532086         1.893968         1.719885
 C         2.521796        -0.670175         1.876822
 C         2.445892        -1.135854         0.442338
 H        -0.540960        -0.483133         1.072819
 H        -0.534149         0.790500         0.018257
 H        -0.604266        -0.811453        -0.732929
 H         4.028189        -0.713008        -1.179370
 H         4.331696         1.056113         1.179373
 H         3.589712         1.926678        -0.194304
 H         0.857194         1.615731         2.331415
 H         3.442709        -0.859947         2.477816
 H         1.716329        -1.242996         2.428175
 H         2.647160        -2.229737         0.210980
