19
Iteration:  4249
 C        -0.068346        -0.313848         0.045844
 C         1.392423        -0.160092         0.046403
 O         1.937065         0.037195        -1.197735
 C         3.293746        -0.192213        -0.443286
 C         3.423193         1.098758         0.349593
 C         2.134518         0.829195         1.153281
 O         1.511861         1.795497         1.906054
 C         2.600679        -0.473786         1.939081
 C         2.461999        -1.112278         0.541393
 H        -0.612351        -0.249154         1.062402
 H        -0.511559         0.583715        -0.466261
 H        -0.355514        -1.212795        -0.626805
 H         4.015682        -0.677692        -1.057110
 H         4.499174         1.047509         0.800685
 H         3.301831         2.000308        -0.274428
 H         0.883920         2.107440         1.171251
 H         3.682177        -0.439276         2.346017
 H         1.684950        -0.715304         2.541160
 H         2.375710        -2.100809         0.064840
