19
Iteration:  2337charge 0 multiplicity 1
 C        -0.153236        -0.268713        -0.148114
 C         1.318602        -0.167209        -0.043812
 O         2.017329         0.145362        -1.263632
 C         3.219640        -0.127800        -0.447965
 C         3.422988         0.975060         0.495175
 C         2.125120         0.805094         1.273274
 O         1.712622         1.885776         1.956464
 C         2.496439        -0.591031         1.931555
 C         2.427365        -1.150573         0.447106
 H        -0.546606        -0.197556         0.829529
 H        -0.453122         0.660387        -0.666413
 H        -0.497767        -1.161247        -0.704918
 H         4.100813        -0.383468        -1.026838
 H         4.344149         0.820614         1.104430
 H         3.467414         1.898290        -0.088364
 H         1.006795         1.795312         2.602718
 H         3.353006        -0.457240         2.557350
 H         1.847713        -1.163286         2.598693
 H         2.424359        -2.223848         0.091977
