19
Iteration:  4723
 C        -0.183673        -0.287505        -0.003064
 C         1.345280        -0.075110         0.100255
 O         2.004590         0.003445        -1.247549
 C         3.309987        -0.193135        -0.494286
 C         3.432216         1.051897         0.349366
 C         2.216630         0.837280         1.122592
 O         1.512837         1.714835         1.944630
 C         2.516580        -0.456251         1.958099
 C         2.544778        -1.070215         0.520516
 H        -0.541902        -0.324956         0.989841
 H        -0.777295         0.580196        -0.341513
 H        -0.412434        -1.324763        -0.321338
 H         4.131290        -0.501184        -1.148287
 H         4.284913         1.233643         0.996095
 H         3.347141         1.989142        -0.306188
 H         0.869792         2.209665         1.395274
 H         3.450658        -0.451659         2.454450
 H         1.674514        -0.676087         2.542152
 H         2.522239        -2.137654         0.419021
