19
Iteration:  3124
 C        -0.159427        -0.379502         0.048092
 C         1.327026         0.010663         0.089307
 O         2.051462        -0.007450        -1.233885
 C         3.347417        -0.260752        -0.518826
 C         3.431354         1.078521         0.278008
 C         2.122824         0.861259         1.126169
 O         1.511629         1.790731         1.998517
 C         2.502927        -0.441709         1.872821
 C         2.454031        -1.101024         0.553004
 H        -0.500168        -0.857111         1.029499
 H        -0.734352         0.493828        -0.315570
 H        -0.192717        -1.154622        -0.738060
 H         4.056697        -0.588484        -1.322781
 H         4.369323         1.014441         0.907434
 H         3.361720         1.962129        -0.395194
 H         2.151047         2.460711         2.174602
 H         3.355819        -0.476109         2.595249
 H         1.577013        -0.671038         2.507708
 H         2.234380        -2.148431         0.414363
