19
Iteration:  4591
 C        -0.093930        -0.314360         0.123663
 C         1.392667        -0.207791        -0.001609
 O         2.031043         0.044393        -1.223687
 C         3.212429        -0.212569        -0.467412
 C         3.376934         1.085816         0.431781
 C         2.131950         0.838841         1.136787
 O         1.459962         1.867153         1.795935
 C         2.574986        -0.458287         1.855610
 C         2.505230        -1.134672         0.535678
 H        -0.529354        -0.915135         0.930104
 H        -0.548208         0.731362         0.119117
 H        -0.576778        -0.774992        -0.799025
 H         3.989798        -0.712001        -1.198060
 H         4.419931         1.148889         0.926742
 H         3.283003         2.057520        -0.214862
 H         1.781351         2.040442         2.714321
 H         3.513885        -0.362972         2.482766
 H         1.943147        -1.016927         2.596681
 H         2.663085        -2.165447         0.376101
