19
Iteration:   622
 C        -0.068054        -0.348771        -0.203953
 C         1.350410        -0.046160        -0.020672
 O         2.076181         0.201983        -1.298293
 C         3.258249        -0.223186        -0.387630
 C         3.550484         0.964465         0.494849
 C         2.131730         0.840532         1.251853
 O         1.746757         1.884901         2.076304
 C         2.230850        -0.577283         1.859605
 C         2.345483        -1.151775         0.416719
 H        -0.298892        -0.795438         0.808364
 H        -0.841786         0.476605        -0.178790
 H        -0.053537        -1.173732        -0.970657
 H         3.993516        -0.568405        -1.163850
 H         4.396478         0.770779         1.227390
 H         3.617222         1.965327         0.041905
 H         0.762595         1.968909         2.291561
 H         3.120808        -0.628557         2.547064
 H         1.271590        -0.912821         2.337865
 H         2.291085        -2.196945         0.154533
