19
Iteration:  1078charge 0 multiplicity 1
 C        -0.037564         0.010908        -0.015467
 C         1.482717        -0.066252         0.088046
 O         2.050504         0.169306        -1.158615
 C         3.320025        -0.248528        -0.517834
 C         3.580213         1.010552         0.408567
 C         2.220103         0.700027         1.254976
 O         1.341746         1.825707         1.733854
 C         2.378031        -0.687164         1.969254
 C         2.433329        -1.164738         0.413567
 H        -0.542354        -0.167105         0.957267
 H        -0.555475         0.990650        -0.180041
 H        -0.333502        -0.865552        -0.664054
 H         4.066472        -0.882394        -1.080171
 H         4.447758         0.946117         1.099743
 H         3.384272         2.035115         0.086476
 H         1.008234         1.557119         2.572044
 H         2.964444        -0.957785         2.905222
 H         1.451182        -1.225897         2.192260
 H         2.320580        -2.221896         0.157209
