19
Iteration:  3214
 C        -0.108980        -0.288201         0.181344
 C         1.377870        -0.164680        -0.025889
 O         2.063950         0.016055        -1.261061
 C         3.221762        -0.220923        -0.463859
 C         3.576728         1.116164         0.416393
 C         2.169792         0.892883         1.139310
 O         1.398557         1.802088         1.948485
 C         2.533517        -0.476665         1.822389
 C         2.456008        -1.195421         0.452745
 H        -0.578311        -0.235138         1.109541
 H        -0.625405         0.665417        -0.228037
 H        -0.713213        -1.094182        -0.373383
 H         4.044668        -0.570470        -1.068482
 H         4.419596         1.016594         1.165426
 H         3.756869         2.051379        -0.190702
 H         0.839568         2.441446         1.470253
 H         3.529276        -0.581906         2.445691
 H         1.830360        -0.660305         2.595439
 H         2.382248        -2.308054         0.276965
