19
Iteration:  4179
 C        -0.139202        -0.345453         0.116308
 C         1.399709        -0.172644         0.098587
 O         2.030419         0.099414        -1.248359
 C         3.295908        -0.186798        -0.512759
 C         3.438335         1.048062         0.358791
 C         2.144616         0.797839         1.242529
 O         1.470319         1.922563         1.713683
 C         2.502395        -0.502057         1.987315
 C         2.518865        -1.154101         0.458211
 H        -0.438418        -0.754663         1.052795
 H        -0.676628         0.605790         0.138015
 H        -0.325349        -1.012525        -0.773288
 H         4.139810        -0.537620        -1.165267
 H         4.289495         1.140525         1.033715
 H         3.364788         2.067013        -0.185676
 H         1.470064         1.775531         2.694544
 H         3.424346        -0.528146         2.502948
 H         1.556852        -0.840630         2.455325
 H         2.261145        -2.301297         0.275507
