19
Iteration:  1641charge 0 multiplicity 1
 C        -0.019168        -0.377151        -0.044335
 C         1.434903        -0.043656         0.034435
 O         2.104867         0.350789        -1.218162
 C         3.256358        -0.235871        -0.491738
 C         3.496464         0.975680         0.455995
 C         2.166120         0.808661         1.271727
 O         1.483996         1.840067         1.899103
 C         2.308578        -0.645937         1.848270
 C         2.318799        -1.188600         0.447034
 H        -0.232100        -0.939231         0.845331
 H        -0.644610         0.473794        -0.167974
 H        -0.173488        -0.969183        -0.980191
 H         4.139694        -0.519633        -1.096463
 H         4.343867         0.676818         1.048913
 H         3.885439         1.867835        -0.009803
 H         2.003806         2.313690         2.526210
 H         3.087655        -0.634404         2.647104
 H         1.360864        -0.802431         2.402449
 H         2.262354        -2.249371         0.102498
