19
Iteration:  3694
 C        -0.082223        -0.282417        -0.011474
 C         1.428515        -0.161361         0.117828
 O         1.968103         0.092809        -1.239335
 C         3.203405        -0.234037        -0.520256
 C         3.397823         1.076968         0.264869
 C         2.145823         0.827483         1.230468
 O         1.541546         1.884617         1.915803
 C         2.560427        -0.466744         1.928364
 C         2.492771        -1.161790         0.561645
 H        -0.532416        -0.730543         0.905628
 H        -0.472364         0.707708        -0.401642
 H        -0.097237        -1.134664        -0.745633
 H         4.115048        -0.714818        -1.052570
 H         4.401593         1.038429         0.754657
 H         3.219152         1.829838        -0.595728
 H         0.842177         1.592417         2.565099
 H         3.457332        -0.570994         2.557738
 H         1.730682        -0.840646         2.527792
 H         2.428539        -2.205129         0.277254
