19
Iteration:   137
 C        -0.065992        -0.237783        -0.204581
 C         1.424771        -0.039608         0.123187
 O         2.122798         0.296336        -1.134659
 C         3.307622        -0.179209        -0.531671
 C         3.456611         0.957322         0.421956
 C         2.108324         0.712265         1.198727
 O         1.650268         1.831931         1.826105
 C         2.286919        -0.591284         2.019249
 C         2.356979        -1.236646         0.534210
 H        -0.723048        -0.768529         0.542328
 H        -0.610143         0.680739        -0.607439
 H        -0.054827        -0.981786        -1.069434
 H         4.070497        -0.571596        -1.220331
 H         4.383065         1.086770         1.030909
 H         3.403541         1.886413        -0.161021
 H         0.987791         1.621586         2.557342
 H         3.199649        -0.528753         2.701232
 H         1.289435        -0.977245         2.532444
 H         2.198156        -2.331680         0.372385
