19
Iteration:  1036
 C        -0.194663        -0.058447         0.026208
 C         1.342761        -0.134648        -0.088876
 O         2.170515         0.136992        -1.227117
 C         3.314253        -0.264123        -0.379610
 C         3.474829         1.088717         0.566531
 C         2.041561         0.710074         1.193036
 O         1.568390         1.825981         1.812636
 C         2.464297        -0.634418         1.861713
 C         2.418830        -1.197547         0.433117
 H        -0.279776        -0.299194         1.065504
 H        -0.317311         1.033770        -0.107616
 H        -0.714457        -0.785088        -0.575222
 H         4.169074        -0.596541        -1.124717
 H         4.305125         1.005291         1.310687
 H         3.626452         1.940699        -0.123056
 H         0.673428         1.844800         2.205547
 H         3.359961        -0.529157         2.458268
 H         1.709516        -1.104176         2.511694
 H         2.313634        -2.254877         0.130507
