19
Iteration:  4506
 C        -0.123534        -0.411244         0.148306
 C         1.402581        -0.119583         0.115646
 O         2.029723         0.097122        -1.351422
 C         3.255231        -0.215984        -0.505762
 C         3.376845         1.046357         0.371095
 C         2.127198         0.874350         1.227753
 O         1.553272         1.901048         1.863486
 C         2.573553        -0.552067         1.949231
 C         2.484173        -1.104499         0.499958
 H        -0.444155        -0.456343         1.133178
 H        -0.653247         0.452795        -0.415195
 H        -0.412320        -1.328125        -0.452979
 H         4.231974        -0.529990        -1.002090
 H         4.284489         1.024124         0.886305
 H         3.291458         1.956340        -0.294248
 H         0.622011         1.937263         1.509964
 H         3.525359        -0.450792         2.554150
 H         1.568664        -0.797898         2.440258
 H         2.515712        -2.202565         0.245237
