19
Iteration:  1523
 C        -0.087918        -0.115754         0.034469
 C         1.428521        -0.010959         0.017825
 O         2.166147         0.227462        -1.231353
 C         3.328673        -0.164600        -0.472427
 C         3.433790         0.978086         0.495962
 C         2.103532         0.727399         1.178055
 O         1.453281         1.751702         1.926935
 C         2.441390        -0.736182         1.914538
 C         2.397101        -1.143799         0.398789
 H        -0.437115        -0.069566         1.100057
 H        -0.558691         0.704745        -0.564705
 H        -0.264391        -1.186393        -0.427536
 H         4.108980        -0.596105        -1.026061
 H         4.308066         0.988704         1.265624
 H         3.536103         1.781235        -0.267927
 H         0.776801         2.218015         1.329840
 H         3.264982        -0.821022         2.671541
 H         1.515630        -1.114399         2.376310
 H         2.308479        -2.199631         0.082502
