19
Iteration:  3597charge 0 multiplicity 1
 C        -0.132425        -0.246726         0.005420
 C         1.386600        -0.173253         0.057897
 O         1.992899         0.151611        -1.186665
 C         3.280767        -0.179734        -0.489179
 C         3.476555         1.038615         0.302824
 C         2.149645         0.763092         1.209670
 O         1.479725         1.893194         1.804073
 C         2.662927        -0.571121         2.003165
 C         2.407423        -1.177802         0.536565
 H        -0.161276        -0.516503         1.118620
 H        -0.718518         0.701195        -0.215319
 H        -0.554004        -1.019559        -0.596613
 H         4.151085        -0.528602        -1.179432
 H         4.461637         1.075619         0.811946
 H         2.966462         1.858196        -0.284735
 H         0.489267         1.742347         1.794962
 H         3.715497        -0.523581         2.360080
 H         2.034272        -0.913419         2.875710
 H         2.283502        -2.245426         0.390445
