19
Iteration:  3575charge 0 multiplicity 1
 C        -0.122097        -0.119027         0.139311
 C         1.414860        -0.182461         0.152142
 O         2.033088        -0.009504        -1.256224
 C         3.240702        -0.232716        -0.470558
 C         3.371005         1.092540         0.416472
 C         2.082578         0.865561         1.113103
 O         1.479570         1.817977         1.827176
 C         2.609076        -0.520409         1.835592
 C         2.607877        -1.152055         0.480449
 H        -0.653242        -0.446536         1.114357
 H        -0.445416         0.920339        -0.221688
 H        -0.517045        -0.737915        -0.647220
 H         4.065472        -0.734671        -1.106900
 H         4.166121         0.979725         1.173754
 H         3.261465         1.958932        -0.329447
 H         0.589013         1.614601         2.076879
 H         3.569931        -0.576133         2.417846
 H         1.821848        -0.932838         2.520087
 H         2.501892        -2.219145         0.337000
