19
Iteration:  2267charge 0 multiplicity 1
 C        -0.186503        -0.235362         0.064099
 C         1.356612        -0.104649         0.008848
 O         2.085342         0.167337        -1.267374
 C         3.234423        -0.153945        -0.414464
 C         3.531064         1.014657         0.583698
 C         2.113321         0.729113         1.206563
 O         1.632771         1.890310         1.831945
 C         2.381521        -0.637421         1.813325
 C         2.478296        -1.130365         0.363001
 H        -0.277644        -0.907638         0.978870
 H        -0.583080         0.763539         0.410646
 H        -0.631001        -0.695182        -0.814140
 H         4.089138        -0.408305        -1.056069
 H         4.369752         0.769712         1.342732
 H         3.631637         1.937631        -0.088634
 H         0.753745         1.642030         2.115564
 H         3.207877        -0.756480         2.568636
 H         1.548386        -1.099349         2.369411
 H         2.508392        -2.164566         0.102757
