19
Iteration:  3201charge 0 multiplicity 1
 C        -0.080774        -0.282786         0.073556
 C         1.389329        -0.224884         0.038897
 O         1.994768         0.113694        -1.229253
 C         3.289912        -0.184296        -0.556588
 C         3.456470         1.087013         0.387376
 C         2.169819         0.808110         1.168229
 O         1.479004         1.836406         1.919623
 C         2.493866        -0.494064         1.946586
 C         2.430554        -1.172119         0.528297
 H        -0.115452        -0.354609         1.176665
 H        -0.551631         0.583801        -0.474499
 H        -0.367964        -1.306518        -0.311940
 H         4.072849        -0.569985        -1.269063
 H         4.318407         0.905925         1.102294
 H         3.537749         2.009901        -0.217715
 H         1.190908         2.441130         1.209735
 H         3.483772        -0.484387         2.477072
 H         1.595710        -0.847365         2.477521
 H         2.466262        -2.244127         0.224208
