19
Iteration:   733
 C        -0.148704         0.050435         0.056242
 C         1.403814        -0.062244        -0.012208
 O         2.256225         0.166820        -1.202245
 C         3.337066        -0.289463        -0.373168
 C         3.514283         1.023958         0.447304
 C         2.112022         0.738766         1.134162
 O         1.419137         1.656964         1.914782
 C         2.448110        -0.612368         1.818473
 C         2.349320        -1.183757         0.471511
 H        -0.706113        -0.102359         1.020398
 H        -0.408978         1.097191        -0.314335
 H        -0.643936        -0.773164        -0.514896
 H         4.092501        -0.597127        -1.052916
 H         4.388919         1.224247         1.094575
 H         3.375778         1.824393        -0.297603
 H         0.565811         1.856636         1.564926
 H         3.479624        -0.663730         2.208844
 H         1.650192        -0.971097         2.559304
 H         2.224899        -2.285632         0.298870
