19
Iteration:  4234
 C        -0.137354        -0.274151         0.063681
 C         1.375120        -0.128604         0.115046
 O         2.056706         0.041075        -1.237691
 C         3.227943        -0.197505        -0.518339
 C         3.414310         1.068031         0.346312
 C         2.119245         0.800766         1.160256
 O         1.503847         1.851188         1.867881
 C         2.574429        -0.482956         1.904787
 C         2.504115        -1.163439         0.523344
 H        -0.449595        -0.393101         1.065071
 H        -0.603777         0.649441        -0.246631
 H        -0.354842        -1.225350        -0.446302
 H         4.096474        -0.416484        -1.206598
 H         4.181651         1.177191         1.092706
 H         3.567074         2.010605        -0.285790
 H         0.607506         2.051013         1.599661
 H         3.456606        -0.458073         2.456223
 H         2.011578        -0.997135         2.653839
 H         2.590843        -2.361135         0.563286
