19
Iteration:  4106charge 0 multiplicity 1
 C        -0.089292        -0.260463         0.077825
 C         1.389345        -0.215748         0.036790
 O         2.032918         0.078089        -1.240363
 C         3.297972        -0.222183        -0.513938
 C         3.346928         1.115205         0.378888
 C         2.104516         0.783378         1.157758
 O         1.480753         1.848908         1.884856
 C         2.527878        -0.526815         1.999504
 C         2.502587        -1.202763         0.500420
 H        -0.409655        -0.254912         1.120697
 H        -0.460442         0.672872        -0.327123
 H        -0.474398        -1.113908        -0.608145
 H         4.234804        -0.331330        -1.071107
 H         4.188765         1.252351         1.055278
 H         3.259630         1.901736        -0.417357
 H         1.769321         2.746829         1.543528
 H         3.486045        -0.338545         2.492103
 H         1.622020        -0.941333         2.351903
 H         2.606256        -2.302480         0.376255
