19
Iteration:   585charge 0 multiplicity 1
 C        -0.098025        -0.062151        -0.085423
 C         1.376845        -0.073990        -0.021904
 O         2.106052         0.170183        -1.261171
 C         3.288520        -0.168870        -0.381339
 C         3.432740         1.051822         0.520353
 C         2.051920         0.630626         1.256542
 O         1.650198         1.847658         1.908671
 C         2.357195        -0.699376         1.892027
 C         2.465159        -1.206237         0.427576
 H        -0.441132        -0.268396         0.935530
 H        -0.503922         0.787163        -0.547291
 H        -0.478027        -0.888052        -0.626596
 H         4.182989        -0.615172        -0.876121
 H         4.374161         1.071698         1.054605
 H         3.317305         1.966135        -0.082121
 H         0.664266         1.867518         2.003562
 H         3.238013        -0.715543         2.513818
 H         1.555506        -1.143233         2.425236
 H         2.512372        -2.227299         0.018184
