19
Iteration:  4510charge 0 multiplicity 1
 C        -0.132782        -0.385245         0.110650
 C         1.376434        -0.109091         0.128484
 O         2.048968         0.091683        -1.364412
 C         3.263727        -0.212261        -0.514029
 C         3.356553         1.008283         0.351130
 C         2.121892         0.844603         1.245456
 O         1.545548         1.892058         1.860621
 C         2.587725        -0.499318         1.950417
 C         2.505420        -1.096569         0.506193
 H        -0.402122        -0.433237         1.249480
 H        -0.769061         0.426360        -0.222854
 H        -0.344860        -1.316687        -0.404153
 H         4.135715        -0.557549        -0.953579
 H         4.299938         1.089852         0.982683
 H         3.323449         1.930558        -0.192439
 H         0.639720         1.917907         1.590083
 H         3.484592        -0.489437         2.504039
 H         1.695524        -0.895340         2.337413
 H         2.487700        -2.232675         0.298332
