19
Iteration:  4093charge 0 multiplicity 1
 C        -0.119318        -0.256108         0.109043
 C         1.411684        -0.196640         0.072620
 O         2.072409         0.037395        -1.226954
 C         3.292541        -0.157364        -0.472008
 C         3.386011         1.045215         0.396996
 C         2.058637         0.739304         1.156551
 O         1.503549         1.793899         1.880539
 C         2.482119        -0.428569         1.856746
 C         2.561367        -1.125972         0.498558
 H        -0.574723        -0.170895         1.084746
 H        -0.451439         0.681763        -0.353154
 H        -0.582268        -1.178078        -0.425131
 H         4.014853        -0.597185        -1.199135
 H         4.259130         1.078157         1.059304
 H         3.279358         2.083358        -0.112115
 H         1.456335         2.537475         1.287221
 H         3.370200        -0.382914         2.476600
 H         1.804824        -0.785028         2.609815
 H         2.339514        -2.234789         0.166872
