19
Iteration:   165charge 0 multiplicity 1
 C        -0.109327        -0.193612        -0.012825
 C         1.385104        -0.043864        -0.098449
 O         2.182669         0.105797        -1.300565
 C         3.308214        -0.188509        -0.413469
 C         3.512338         0.950404         0.564830
 C         2.148270         0.882756         1.200218
 O         1.477139         1.850862         1.910088
 C         2.358607        -0.612844         1.837908
 C         2.340670        -1.112037         0.453948
 H        -0.293482        -0.535236         0.999441
 H        -0.656620         0.694019        -0.178048
 H        -0.517543        -0.996747        -0.576346
 H         4.125434        -0.727734        -0.942798
 H         4.210482         0.635333         1.335156
 H         3.953832         1.794643         0.021670
 H         1.144526         1.584334         2.790040
 H         3.251684        -0.911447         2.358958
 H         1.479044        -0.983157         2.246622
 H         2.426618        -2.256008         0.268663
