19
Iteration:  4021
 C        -0.188424        -0.357768         0.003897
 C         1.330576        -0.265209         0.043034
 O         2.002982         0.093287        -1.271089
 C         3.275888        -0.184293        -0.509562
 C         3.444762         1.099190         0.455291
 C         2.168562         0.804751         1.222621
 O         1.569958         1.897406         1.884448
 C         2.496738        -0.469873         1.925886
 C         2.514888        -1.180185         0.489255
 H        -0.546165        -0.391114         1.074253
 H        -0.659268         0.640086        -0.206243
 H        -0.510610        -1.222767        -0.635439
 H         4.229968        -0.414109        -0.938719
 H         4.341563         1.054260         1.083311
 H         3.385866         2.019963        -0.085624
 H         1.222680         2.398008         1.115236
 H         3.495999        -0.441654         2.533714
 H         1.756584        -0.871993         2.695031
 H         2.605171        -2.204515         0.456043
