19
Iteration:  3796charge 0 multiplicity 1
 C        -0.141936        -0.487752         0.064148
 C         1.308531        -0.126062        -0.009047
 O         2.009560         0.091195        -1.235308
 C         3.285038        -0.218147        -0.490568
 C         3.467203         1.079586         0.368221
 C         2.085526         0.827673         1.185956
 O         1.582092         2.000391         1.851932
 C         2.540621        -0.464751         1.919622
 C         2.460183        -1.147321         0.522431
 H        -0.342248        -0.887481         1.117566
 H        -0.579765         0.479306        -0.325751
 H        -0.400588        -1.208573        -0.673730
 H         3.881930        -0.569707        -1.294107
 H         4.342764         1.000949         1.084954
 H         3.770061         1.932653        -0.185620
 H         1.024447         1.689245         2.572508
 H         3.515553        -0.480666         2.443026
 H         1.732361        -0.899298         2.603682
 H         2.530965        -2.289730         0.527264
