19
Iteration:  3797charge 0 multiplicity 1
 C        -0.133974        -0.492176         0.057274
 C         1.315240        -0.123843        -0.005756
 O         2.008686         0.095345        -1.239110
 C         3.273751        -0.213752        -0.490951
 C         3.459410         1.075191         0.367865
 C         2.085420         0.824911         1.185946
 O         1.588302         2.007254         1.851533
 C         2.541245        -0.469675         1.930045
 C         2.450230        -1.152644         0.530134
 H        -0.352743        -0.857225         1.091400
 H        -0.574396         0.445110        -0.325852
 H        -0.409553        -1.205676        -0.721089
 H         3.905219        -0.551642        -1.295618
 H         4.322769         1.003886         1.052646
 H         3.768093         1.922901        -0.185524
 H         1.017492         1.692180         2.596117
 H         3.559338        -0.449003         2.419621
 H         1.746750        -0.910710         2.620866
 H         2.572785        -2.316629         0.519547
