19
Iteration:  1815charge 0 multiplicity 1
 C        -0.145182        -0.347623         0.043523
 C         1.380709         0.020353         0.029651
 O         2.156326         0.325398        -1.197098
 C         3.369272        -0.200431        -0.487773
 C         3.478728         0.889935         0.592440
 C         2.070624         0.699571         1.161835
 O         1.500679         1.847082         1.889147
 C         2.377466        -0.643783         1.846064
 C         2.355033        -1.087315         0.312199
 H        -0.268521        -0.835910         1.006350
 H        -0.772845         0.495546         0.040773
 H        -0.248198        -1.193303        -0.688343
 H         4.131000        -0.612968        -1.158390
 H         4.176233         0.588155         1.355070
 H         3.592626         1.898640         0.203013
 H         2.206469         2.561328         1.867986
 H         3.265899        -0.696672         2.418557
 H         1.470805        -0.968688         2.311661
 H         2.296872        -2.174384         0.064512
