19
Iteration:  4509charge 0 multiplicity 1
 C        -0.131238        -0.392828         0.120647
 C         1.384691        -0.111695         0.127273
 O         2.043870         0.093782        -1.363841
 C         3.263470        -0.214553        -0.513154
 C         3.361546         1.015839         0.357032
 C         2.120878         0.857297         1.243890
 O         1.547320         1.893061         1.860303
 C         2.586183        -0.514505         1.952544
 C         2.499273        -1.096092         0.504950
 H        -0.409369        -0.433159         1.222411
 H        -0.746837         0.439771        -0.274854
 H        -0.364567        -1.326673        -0.424261
 H         4.147802        -0.543867        -0.949373
 H         4.283385         1.072159         0.948553
 H         3.313910         1.935850        -0.215613
 H         0.655337         1.917919         1.571567
 H         3.491647        -0.474401         2.508857
 H         1.661920        -0.859253         2.343014
 H         2.500624        -2.255138         0.277380
