19
Iteration:   747charge 0 multiplicity 1
 C        -0.118802        -0.009760        -0.077206
 C         1.387834        -0.051276        -0.003961
 O         2.105510         0.161460        -1.255863
 C         3.325884        -0.244132        -0.482995
 C         3.456907         0.969738         0.521061
 C         2.149978         0.702774         1.223107
 O         1.455018         1.714469         1.918856
 C         2.501688        -0.593501         1.952786
 C         2.389189        -1.161558         0.458402
 H        -0.312158        -0.142835         1.022481
 H        -0.554388         0.918198        -0.440838
 H        -0.574317        -0.740919        -0.719757
 H         4.135154        -0.705376        -0.939395
 H         4.223568         0.781669         1.242152
 H         3.611535         1.961869         0.094596
 H         0.928259         2.201093         1.221130
 H         3.451733        -0.631554         2.528180
 H         1.707071        -0.999853         2.608346
 H         2.310268        -2.228590         0.154270
