19
Iteration:   294
 C        -0.056962        -0.217531        -0.107318
 C         1.406919        -0.067168        -0.037823
 O         2.076700         0.181325        -1.286823
 C         3.291210        -0.157145        -0.461585
 C         3.448637         1.021541         0.530226
 C         2.140230         0.689989         1.164883
 O         1.731827         1.881415         1.957012
 C         2.137045        -0.673451         1.957003
 C         2.487675        -1.147629         0.470341
 H        -0.278103        -0.682091         0.888156
 H        -0.781900         0.631098        -0.201838
 H        -0.240462        -0.940760        -0.912689
 H         3.974490        -0.453719        -1.276336
 H         4.347760         0.883723         1.180701
 H         3.451144         2.032536         0.031341
 H         0.794179         1.862352         2.357804
 H         2.847773        -0.651524         2.875513
 H         1.168777        -1.108111         2.273832
 H         2.541613        -2.174705         0.339701
