19
Iteration:    47charge 0 multiplicity 1
 C        -0.069428        -0.091327        -0.057938
 C         1.398984        -0.100040         0.057631
 O         2.167855         0.155206        -1.137608
 C         3.335312        -0.234711        -0.468389
 C         3.509827         1.029680         0.438019
 C         2.211593         0.772602         1.279386
 O         1.435215         1.903774         1.731754
 C         2.315490        -0.719764         1.907622
 C         2.412600        -1.193882         0.490638
 H        -0.455741        -0.189046         1.008726
 H        -0.361060         0.933158        -0.392478
 H        -0.494197        -0.940321        -0.660395
 H         4.143600        -0.619078        -1.125068
 H         4.381676         0.947140         1.038811
 H         3.468094         1.892023        -0.248738
 H         1.060661         1.617504         2.613200
 H         2.931349        -1.048412         2.755035
 H         1.172932        -1.017960         2.096418
 H         2.145538        -2.282789         0.113864
