19
Iteration:  4840
 C        -0.091874        -0.334361         0.115448
 C         1.391273        -0.203817         0.093348
 O         2.004135         0.112695        -1.226093
 C         3.261122        -0.181333        -0.527801
 C         3.415246         1.151371         0.412335
 C         2.174000         0.751958         1.152110
 O         1.561168         1.875190         1.745122
 C         2.511013        -0.478696         1.895354
 C         2.421009        -1.169437         0.532158
 H        -0.441524        -0.704728         1.127734
 H        -0.654992         0.616510         0.084335
 H        -0.353331        -1.259751        -0.462513
 H         4.261664        -0.496065        -1.053236
 H         4.475939         1.345265         0.807548
 H         3.150007         2.029346        -0.195161
 H         0.890777         1.558743         2.447317
 H         3.576454        -0.445829         2.358220
 H         1.658435        -0.894135         2.524656
 H         2.417262        -2.199999         0.443220
