19
Iteration:  2252charge 0 multiplicity 1
 C        -0.164151        -0.094131         0.082058
 C         1.391380        -0.133143        -0.040697
 O         1.989006         0.167271        -1.285455
 C         3.420640        -0.199785        -0.441921
 C         3.442254         1.033893         0.498442
 C         2.155615         0.733810         1.210224
 O         1.529026         1.811576         1.836576
 C         2.445570        -0.646134         1.877887
 C         2.496445        -1.153836         0.472289
 H        -0.690020        -0.717616         0.867026
 H        -0.588337         0.881809         0.114595
 H        -0.661931        -0.377021        -0.909786
 H         4.341022        -0.486348        -1.049444
 H         4.272232         0.868726         1.155001
 H         3.490601         2.022536         0.040659
 H         0.910263         1.460712         2.494806
 H         3.344938        -0.772379         2.576315
 H         1.478271        -1.027425         2.324028
 H         2.571318        -2.219628         0.134291
