19
Iteration:  1338
 C        -0.089645        -0.326117        -0.103941
 C         1.385207        -0.073967        -0.002283
 O         2.047277         0.177190        -1.216250
 C         3.294675        -0.151767        -0.439310
 C         3.505230         0.982069         0.496205
 C         2.122920         0.766098         1.237459
 O         1.550082         1.911432         1.879371
 C         2.394606        -0.639027         1.859982
 C         2.403260        -1.112808         0.486141
 H        -0.725146        -0.356819         0.796553
 H        -0.641094         0.521405        -0.591524
 H        -0.309582        -1.280550        -0.672376
 H         4.060974        -0.452972        -1.066336
 H         4.334038         0.608956         1.165016
 H         3.617827         2.008755         0.155743
 H         1.827944         1.818520         2.841270
 H         3.342683        -0.726430         2.427381
 H         1.488080        -1.015057         2.341437
 H         2.257044        -2.088697         0.050482
