19
Iteration:  2839
 C        -0.191704        -0.345725        -0.092288
 C         1.372818        -0.123746         0.024731
 O         1.961411         0.036746        -1.197796
 C         3.252609        -0.174218        -0.499026
 C         3.417734         1.078497         0.358848
 C         2.159314         0.798843         1.228944
 O         1.518143         1.862964         1.906546
 C         2.618554        -0.485428         1.935945
 C         2.465119        -1.130576         0.585208
 H        -0.548120        -0.876008         0.846454
 H        -0.663435         0.627976        -0.174794
 H        -0.479245        -0.955170        -0.980534
 H         3.945342        -0.490924        -1.244756
 H         4.419822         0.955345         0.881975
 H         3.629548         1.906748        -0.369614
 H         2.216814         2.510345         2.142430
 H         3.602126        -0.497663         2.467548
 H         1.757438        -1.029857         2.509879
 H         2.310729        -2.178482         0.548111
