19
Iteration:  4496charge 0 multiplicity 1
 C        -0.062808        -0.424483         0.155401
 C         1.396195        -0.160485         0.041031
 O         1.985689         0.082854        -1.215556
 C         3.252151        -0.168860        -0.477153
 C         3.448442         1.155237         0.357024
 C         2.190692         0.792951         1.135175
 O         1.545436         1.942682         1.873640
 C         2.470331        -0.579619         1.919975
 C         2.470654        -1.135434         0.498450
 H        -0.591773        -0.444629         1.058454
 H        -0.450538         0.414787        -0.519094
 H        -0.333942        -1.394721        -0.378108
 H         4.016012        -0.484380        -1.210327
 H         4.337376         1.161721         0.888701
 H         3.377079         2.007617        -0.362762
 H         0.630839         2.117902         1.485962
 H         3.413522        -0.639801         2.523376
 H         1.775768        -0.873441         2.736133
 H         2.349488        -2.241553         0.165491
