19
Iteration:  4109charge 0 multiplicity 1
 C        -0.084736        -0.270469         0.038736
 C         1.396330        -0.208799         0.043430
 O         2.017890         0.082784        -1.247565
 C         3.292037        -0.223781        -0.502471
 C         3.352392         1.140744         0.351641
 C         2.100879         0.775912         1.184010
 O         1.479095         1.854877         1.872758
 C         2.523659        -0.535731         2.006617
 C         2.502986        -1.207009         0.518530
 H        -0.344593        -0.219751         1.139268
 H        -0.571010         0.719177        -0.207191
 H        -0.397777        -1.101279        -0.563652
 H         4.227513        -0.372763        -1.026623
 H         4.240927         1.248327         1.002395
 H         3.287507         1.848974        -0.420230
 H         1.790911         2.749632         1.636511
 H         3.568380        -0.506161         2.457816
 H         1.586281        -1.020547         2.325384
 H         2.656033        -2.226664         0.440035
