19
Iteration:  3263
 C        -0.016805        -0.181303         0.043744
 C         1.403273        -0.310230         0.119721
 O         1.924776         0.082819        -1.183478
 C         3.306849        -0.154283        -0.446794
 C         3.390624         1.106876         0.308467
 C         2.159364         0.789719         1.234311
 O         1.474107         1.820270         1.832776
 C         2.523183        -0.549294         1.855636
 C         2.521025        -1.180457         0.547613
 H        -0.739831        -0.453269         0.903620
 H        -0.406642         0.806464        -0.177488
 H        -0.432409        -0.764209        -0.756009
 H         4.127398        -0.554214        -1.116234
 H         4.287671         1.330981         0.937192
 H         3.113115         1.889128        -0.406303
 H         1.627796         2.654241         1.356028
 H         3.331043        -0.637948         2.533652
 H         1.609194        -0.958816         2.428423
 H         2.653556        -2.242353         0.433608
