19
Iteration:  1054charge 0 multiplicity 1
 C        -0.085266         0.056295         0.126360
 C         1.432532        -0.190299         0.005070
 O         2.129268         0.209420        -1.237123
 C         3.345457        -0.155771        -0.391023
 C         3.394655         0.923064         0.542846
 C         2.123458         0.692956         1.126696
 O         1.457694         1.824634         1.678319
 C         2.415799        -0.662683         1.857181
 C         2.441101        -1.233243         0.450132
 H        -0.453223         0.068809         1.196437
 H        -0.228603         1.166565        -0.068874
 H        -0.658793        -0.731808        -0.469035
 H         4.169091        -0.499827        -0.930905
 H         4.130790         0.868517         1.344363
 H         3.340600         1.924639         0.107530
 H         0.788049         1.420465         2.278563
 H         3.436802        -0.831129         2.409085
 H         1.747050        -1.012149         2.646733
 H         2.532578        -2.302051         0.275674
