19
Iteration:   470charge 0 multiplicity 1
 C        -0.113970        -0.249570        -0.176162
 C         1.404151        -0.095791        -0.016136
 O         2.103055         0.284476        -1.199708
 C         3.280045        -0.158208        -0.425652
 C         3.480817         0.893046         0.578827
 C         2.058857         0.706076         1.218475
 O         1.678201         1.810915         1.974579
 C         2.271749        -0.583672         1.935996
 C         2.391325        -1.163268         0.363343
 H        -0.531183        -0.785867         0.742883
 H        -0.524412         0.844097        -0.352934
 H        -0.328256        -0.922387        -1.077309
 H         4.207697        -0.506187        -0.976218
 H         4.297425         0.806451         1.347208
 H         3.594113         1.852247        -0.006835
 H         1.527063         2.640391         1.452553
 H         3.290517        -0.735091         2.475206
 H         1.416458        -0.897704         2.623256
 H         2.283242        -2.223912         0.108072
