19
Iteration:   865
 C        -0.101560        -0.002523        -0.067967
 C         1.415242        -0.155294         0.052450
 O         2.081095         0.192328        -1.167215
 C         3.276546        -0.137206        -0.430497
 C         3.380329         1.031352         0.455882
 C         2.116951         0.674088         1.190827
 O         1.527009         1.816544         1.807929
 C         2.506029        -0.730950         1.953200
 C         2.487535        -1.261988         0.483986
 H        -0.481049        -0.310900         0.984755
 H        -0.297607         1.102236        -0.234081
 H        -0.612934        -0.582182        -0.855753
 H         4.106771        -0.383715        -1.032111
 H         4.301555         1.172608         1.003675
 H         3.115277         1.918071        -0.134026
 H         0.679702         1.815990         1.390526
 H         3.419947        -0.700956         2.585088
 H         1.648665        -1.059781         2.631972
 H         2.429499        -2.346591         0.228412
