19
Iteration:  3480
 C        -0.064483        -0.389784        -0.024518
 C         1.380861        -0.081873         0.103449
 O         1.905033         0.216429        -1.162173
 C         3.254058        -0.291972        -0.501726
 C         3.455806         1.035477         0.328439
 C         2.173939         0.802368         1.203052
 O         1.528315         1.882650         1.839579
 C         2.417717        -0.547311         1.947863
 C         2.566979        -1.132098         0.531939
 H        -0.455300        -0.672879         1.035697
 H        -0.773396         0.317569        -0.489365
 H        -0.139395        -1.257553        -0.632569
 H         4.147561        -0.542659        -1.155292
 H         4.284879         0.911574         1.038936
 H         3.395642         1.875374        -0.390626
 H         2.098560         2.701247         1.814419
 H         3.248945        -0.686426         2.619783
 H         1.519772        -1.003188         2.497727
 H         2.519570        -2.180001         0.235773
