19
Iteration:  2694
 C        -0.112924        -0.173713         0.074229
 C         1.380464        -0.209212         0.042114
 O         2.053844        -0.002684        -1.274762
 C         3.241519        -0.198808        -0.548770
 C         3.422102         1.046740         0.413605
 C         2.130748         0.837731         1.190057
 O         1.481653         1.882038         1.884482
 C         2.560895        -0.468322         1.897499
 C         2.531019        -1.173215         0.480041
 H        -0.561424        -0.705277         0.861795
 H        -0.269820         0.958724         0.263235
 H        -0.675199        -0.496832        -0.843134
 H         4.173693        -0.550620        -1.030436
 H         4.259928         1.011397         1.119329
 H         3.293539         1.850583        -0.335464
 H         1.127336         1.354929         2.656273
 H         3.442124        -0.545791         2.623226
 H         1.608053        -0.821253         2.446553
 H         2.197188        -2.279388         0.360862
