19
Iteration:  3716
 C        -0.189540        -0.209550        -0.026099
 C         1.356852        -0.173133         0.121526
 O         1.938196         0.034759        -1.173753
 C         3.264300        -0.146063        -0.570330
 C         3.440547         1.106329         0.402801
 C         2.158875         0.779281         1.159535
 O         1.516972         1.816877         1.757210
 C         2.695001        -0.500173         1.983229
 C         2.487747        -1.157542         0.584767
 H        -0.601813        -0.416799         1.007107
 H        -0.375843         0.889430        -0.264491
 H        -0.587682        -0.900864        -0.824484
 H         4.071108        -0.610839        -1.231766
 H         4.303707         0.936953         1.081644
 H         3.336341         2.110898        -0.155604
 H         0.725976         1.362284         2.057983
 H         3.661504        -0.404254         2.488341
 H         2.020788        -0.992800         2.683182
 H         2.601967        -2.209792         0.426324
