19
Iteration:  3128charge 0 multiplicity 1
 C        -0.195766        -0.393581         0.029207
 C         1.340846         0.005627         0.106324
 O         2.037926        -0.003372        -1.271213
 C         3.338974        -0.273844        -0.529427
 C         3.433534         1.073859         0.295511
 C         2.127185         0.865896         1.150139
 O         1.512086         1.803647         2.006288
 C         2.520856        -0.420454         1.900380
 C         2.449555        -1.103984         0.516392
 H        -0.400326        -0.811644         0.949163
 H        -0.812663         0.447979        -0.357626
 H        -0.175664        -1.238931        -0.709167
 H         4.084422        -0.717623        -1.195457
 H         4.292996         0.968681         0.973430
 H         3.411673         2.070516        -0.211440
 H         2.237122         2.492552         2.158892
 H         3.453604        -0.451791         2.575498
 H         1.618807        -0.590877         2.425820
 H         2.307102        -2.237244         0.479580
