19
Iteration:   231charge 0 multiplicity 1
 C        -0.119782        -0.050595        -0.169201
 C         1.384689        -0.110566         0.104926
 O         2.039220         0.186633        -1.199760
 C         3.272594        -0.246056        -0.529248
 C         3.528151         0.954330         0.502640
 C         2.143353         0.703107         1.271635
 O         1.505716         1.776439         1.855151
 C         2.504149        -0.610615         1.964134
 C         2.422120        -1.114497         0.489049
 H        -0.843938        -0.319869         0.590396
 H        -0.283788         0.919013        -0.553882
 H        -0.300847        -0.754140        -0.950449
 H         4.205803        -0.374735        -1.123731
 H         4.318450         0.882578         1.256160
 H         3.675971         1.944579         0.030117
 H         0.566341         1.490725         1.881678
 H         3.371775        -0.553790         2.600132
 H         1.652462        -0.933909         2.513669
 H         2.304412        -2.231197         0.138420
