19
Iteration:  4768charge 0 multiplicity 1
 C        -0.143114        -0.289493         0.106982
 C         1.396936        -0.106013         0.066554
 O         1.996232         0.093430        -1.167922
 C         3.291914        -0.213073        -0.488403
 C         3.407395         1.109828         0.315727
 C         2.085506         0.737347         1.221442
 O         1.459065         1.831106         1.786892
 C         2.548870        -0.571145         1.939157
 C         2.582320        -1.133862         0.536303
 H        -0.697609        -0.734887         0.852853
 H        -0.608234         0.701647         0.021841
 H        -0.321670        -0.946274        -0.747535
 H         4.022489        -0.533694        -1.140743
 H         4.292178         1.289004         0.861889
 H         3.190470         2.027459        -0.347444
 H         1.995227         2.624929         1.490878
 H         3.433920        -0.497388         2.495602
 H         1.757771        -1.111544         2.400882
 H         2.613244        -2.239357         0.311846
