19
Iteration:   258
 C        -0.094136        -0.192254        -0.171509
 C         1.369405        -0.021570        -0.046978
 O         2.135679         0.185067        -1.245980
 C         3.264242        -0.293648        -0.424141
 C         3.506987         1.041682         0.500691
 C         2.092997         0.769552         1.263795
 O         1.597574         1.891855         2.020274
 C         2.451681        -0.683668         1.887219
 C         2.298736        -1.215654         0.459957
 H        -0.434433        -0.707031         0.758303
 H        -0.721572         0.738334        -0.352739
 H        -0.339595        -1.025468        -0.896279
 H         4.145053        -0.593985        -0.965994
 H         4.268573         1.118705         1.290593
 H         3.530018         1.910121        -0.162127
 H         0.630789         2.002679         1.820801
 H         3.507304        -0.588735         2.207359
 H         1.718625        -0.958097         2.691485
 H         2.296397        -2.196569         0.068685
