19
Iteration:   791
 C        -0.178912        -0.366696        -0.162780
 C         1.373582        -0.056428        -0.011180
 O         2.107763         0.311838        -1.167877
 C         3.267484        -0.224902        -0.380065
 C         3.434470         1.010365         0.476751
 C         2.105245         0.751983         1.229846
 O         1.700294         1.865610         1.879750
 C         2.325539        -0.638473         1.926528
 C         2.390000        -1.174506         0.446446
 H        -0.544843        -0.705577         0.828488
 H        -0.789147         0.439863        -0.554474
 H        -0.186771        -1.115431        -0.939695
 H         3.978377        -0.352387        -1.092234
 H         4.239256         1.054737         1.193942
 H         3.419443         1.854153        -0.211365
 H         2.512216         2.140823         2.403617
 H         3.135995        -0.838230         2.680250
 H         1.363947        -0.936728         2.394454
 H         2.340891        -2.208416         0.074579
