19
Iteration:  4225
 C        -0.150226        -0.294038         0.130942
 C         1.360182        -0.128448         0.093449
 O         2.067828         0.086467        -1.278661
 C         3.327353        -0.230544        -0.558422
 C         3.387882         1.051329         0.379575
 C         2.070308         0.823911         1.159795
 O         1.511912         1.898572         1.859367
 C         2.591531        -0.495702         1.940289
 C         2.516916        -1.194465         0.565868
 H        -0.546658        -0.380393         1.137621
 H        -0.575800         0.633067        -0.213820
 H        -0.566000        -1.097319        -0.625651
 H         4.088814        -0.535113        -1.293521
 H         4.299069         1.117972         1.039886
 H         3.255320         2.012925        -0.278710
 H         0.603908         1.736501         1.603817
 H         3.553148        -0.462888         2.448398
 H         1.715278        -1.008136         2.354354
 H         2.660420        -2.378683         0.471430
