19
Iteration:   864
 C        -0.103058        -0.014293        -0.065954
 C         1.413040        -0.161986         0.037899
 O         2.082660         0.197702        -1.160590
 C         3.267166        -0.132627        -0.439310
 C         3.381784         1.032386         0.455862
 C         2.123446         0.680329         1.179356
 O         1.533869         1.810597         1.814201
 C         2.502538        -0.726139         1.965503
 C         2.486589        -1.258378         0.491304
 H        -0.473642        -0.293793         0.965511
 H        -0.298528         1.084608        -0.235591
 H        -0.603490        -0.557881        -0.871952
 H         4.137049        -0.410420        -1.067186
 H         4.310570         1.157963         1.021376
 H         3.126162         1.906043        -0.154458
 H         0.660873         1.809865         1.411740
 H         3.373391        -0.697356         2.611655
 H         1.637606        -1.045582         2.619479
 H         2.420109        -2.341196         0.220732
