19
Iteration:  1279charge 0 multiplicity 1
 C        -0.175467        -0.245159        -0.145789
 C         1.415947         0.018270         0.041058
 O         2.123975         0.159564        -1.243648
 C         3.283857        -0.298547        -0.374400
 C         3.425039         1.087940         0.451404
 C         2.158713         0.757887         1.222491
 O         1.515139         1.802956         1.991647
 C         2.469449        -0.625152         1.894373
 C         2.350716        -1.187816         0.439229
 H        -0.527245        -0.757972         0.715446
 H        -0.702003         0.582828        -0.487772
 H        -0.148109        -0.909076        -0.952492
 H         4.051407        -0.811258        -1.052669
 H         4.289555         1.333917         1.098678
 H         3.259492         1.994442        -0.168231
 H         2.107054         2.557964         2.054748
 H         3.384299        -0.695776         2.385936
 H         1.707597        -0.845316         2.644989
 H         2.216551        -2.161000        -0.068159
