19
Iteration:  4817
 C        -0.081807        -0.357442         0.147663
 C         1.384521        -0.062305         0.096929
 O         2.044268         0.115860        -1.240091
 C         3.261576        -0.264424        -0.496467
 C         3.457747         1.037856         0.321021
 C         2.005635         0.817541         1.169514
 O         1.417429         1.932950         1.772085
 C         2.566421        -0.570285         1.913691
 C         2.526628        -1.092508         0.482212
 H        -0.269283        -0.894474         1.165355
 H        -0.720413         0.505406         0.361871
 H        -0.459404        -1.146859        -0.508556
 H         4.220503        -0.733089        -1.025965
 H         4.400134         1.172310         0.974808
 H         3.685208         1.755034        -0.437783
 H         1.541611         1.861833         2.706938
 H         3.619324        -0.567151         2.428626
 H         1.672369        -0.950730         2.547360
 H         2.471268        -2.095285         0.121089
