19
Iteration:   503
 C        -0.077323        -0.090695        -0.087939
 C         1.439705        -0.068802        -0.033088
 O         2.131554         0.142286        -1.280457
 C         3.345433        -0.194489        -0.382755
 C         3.426996         1.066799         0.493776
 C         2.164403         0.730821         1.259505
 O         1.491237         1.825956         1.953141
 C         2.278827        -0.758482         1.936505
 C         2.375099        -1.193208         0.416259
 H        -0.420273        -0.401789         0.971046
 H        -0.514430         1.012454        -0.216874
 H        -0.488587        -0.751659        -0.939565
 H         4.316918        -0.423811        -0.934446
 H         4.409563         1.199188         1.027776
 H         3.264693         1.810966        -0.327692
 H         2.166553         2.448476         2.191978
 H         3.179626        -1.288039         2.422025
 H         1.290990        -1.057816         2.432075
 H         2.396111        -2.165596        -0.140891
