19
Iteration:  1253
 C        -0.081070        -0.079727        -0.014160
 C         1.418497        -0.152636        -0.018757
 O         2.104715         0.175997        -1.260441
 C         3.259070        -0.214313        -0.470265
 C         3.534297         1.015689         0.477226
 C         2.103139         0.740075         1.182206
 O         1.402295         1.713687         1.941199
 C         2.424285        -0.585241         1.926739
 C         2.442126        -1.153606         0.492348
 H        -0.312549        -0.448093         0.998222
 H        -0.347659         1.016043        -0.213366
 H        -0.621564        -0.667902        -0.807596
 H         3.997897        -0.595985        -1.225921
 H         4.199457         0.821015         1.328676
 H         3.778037         1.944588        -0.040666
 H         1.318531         2.450797         1.342548
 H         3.428199        -0.710966         2.494107
 H         1.619713        -0.921742         2.603196
 H         2.624826        -2.191389         0.198930
