19
Iteration:  1820charge 0 multiplicity 1
 C        -0.129956        -0.334000         0.076612
 C         1.361275         0.033947         0.010467
 O         2.141737         0.301960        -1.255085
 C         3.365250        -0.173185        -0.475877
 C         3.480646         0.842179         0.600219
 C         2.039414         0.692164         1.159654
 O         1.499777         1.859787         1.914078
 C         2.376782        -0.668375         1.792398
 C         2.398778        -1.088613         0.343284
 H        -0.322843        -0.896771         1.030160
 H        -0.804475         0.602496        -0.014490
 H        -0.148277        -1.029939        -0.747456
 H         4.241331        -0.563520        -1.018710
 H         4.177683         0.618183         1.468391
 H         3.722421         1.796937         0.074014
 H         2.002223         2.682416         1.945855
 H         3.324914        -0.605269         2.484442
 H         1.545754        -0.935616         2.549239
 H         2.291509        -2.119952         0.069358
