19
Iteration:  1166charge 0 multiplicity 1
 C        -0.133980        -0.283592        -0.233150
 C         1.328634        -0.050401         0.035145
 O         2.051086         0.231239        -1.261789
 C         3.293793        -0.177077        -0.465206
 C         3.528818         0.956151         0.417199
 C         2.142528         0.762603         1.224357
 O         1.654676         1.839115         1.948449
 C         2.302850        -0.551151         1.996781
 C         2.429836        -1.181847         0.561857
 H        -0.733189        -0.514386         0.619648
 H        -0.611294         0.609917        -0.660499
 H        -0.175259        -1.052943        -1.018765
 H         4.076064        -0.464711        -1.207293
 H         4.412743         0.941327         1.068174
 H         3.715114         1.855161        -0.149771
 H         1.529728         1.466198         2.808028
 H         3.091413        -0.578801         2.809272
 H         1.414919        -1.037007         2.365951
 H         2.286718        -2.257607         0.406708
