19
Iteration:   883
 C        -0.095276         0.053409         0.062194
 C         1.390566        -0.098710         0.057680
 O         2.094445         0.069469        -1.202642
 C         3.327977        -0.252577        -0.432178
 C         3.368495         1.047915         0.573159
 C         2.120839         0.719349         1.292323
 O         1.389916         1.844615         1.770837
 C         2.622027        -0.758656         1.853782
 C         2.440344        -1.139011         0.399019
 H        -0.661882         0.030629         0.915680
 H        -0.313469         1.011167        -0.416255
 H        -0.320323        -0.483323        -0.855597
 H         4.294301        -0.763553        -1.017013
 H         4.209249         1.097753         1.325787
 H         3.268974         1.845829        -0.168952
 H         0.621928         1.912234         1.235374
 H         3.624273        -0.768097         2.251524
 H         2.056552        -1.434404         2.461983
 H         2.375543        -2.156798        -0.016008
