19
Iteration:   354
 C        -0.027238        -0.029739        -0.107217
 C         1.383616        -0.061577         0.045053
 O         2.146957         0.275193        -1.185510
 C         3.312963        -0.243877        -0.408123
 C         3.455357         0.986417         0.430373
 C         2.196863         0.708809         1.259464
 O         1.363271         1.655622         1.806229
 C         2.436672        -0.603798         1.954954
 C         2.340854        -1.192621         0.440638
 H        -0.534994        -0.160887         0.821175
 H        -0.181922         0.952680        -0.531034
 H        -0.355889        -0.765730        -0.837793
 H         4.083425        -0.650960        -1.067980
 H         4.366891         0.944253         1.022849
 H         3.452053         1.829350        -0.239020
 H         1.756381         1.909433         2.660678
 H         3.363891        -0.762744         2.450118
 H         1.606659        -0.808336         2.636152
 H         2.092285        -2.364615         0.241684
