19
Iteration:   479
 C        -0.114578        -0.235383        -0.144166
 C         1.353044        -0.069347         0.025213
 O         2.190182         0.243082        -1.199758
 C         3.289207        -0.215012        -0.420352
 C         3.411700         1.011676         0.553626
 C         2.088591         0.688699         1.247041
 O         1.676550         1.830382         1.975640
 C         2.253400        -0.650607         1.879263
 C         2.395250        -1.169760         0.402425
 H        -0.627548        -0.632471         0.800516
 H        -0.588961         0.835863        -0.277528
 H        -0.375694        -0.809259        -1.082089
 H         4.135062        -0.463769        -1.128159
 H         4.293768         0.959056         1.237764
 H         3.381661         1.939311        -0.085620
 H         1.874196         2.536201         1.294983
 H         3.152586        -0.790517         2.598143
 H         1.356342        -1.195249         2.252235
 H         2.422681        -2.097929        -0.057333
