19
Iteration:  4047charge 0 multiplicity 1
 C        -0.011928        -0.324890         0.051533
 C         1.383474        -0.094139         0.134091
 O         2.034599         0.147843        -1.137809
 C         3.258440        -0.253328        -0.501180
 C         3.425902         1.030877         0.310005
 C         2.137204         0.801478         1.171869
 O         1.496534         1.813660         1.827639
 C         2.488695        -0.533620         1.912382
 C         2.433251        -1.076732         0.492294
 H        -0.502773        -0.286249         1.089087
 H        -0.550325         0.551051        -0.483915
 H        -0.164015        -1.284069        -0.416779
 H         4.175810        -0.574901        -1.061771
 H         4.360460         1.145860         0.954028
 H         3.349762         1.920992        -0.373527
 H         0.769281         2.131910         1.238758
 H         3.365607        -0.429365         2.565167
 H         1.833590        -1.128730         2.594379
 H         2.489498        -2.244743         0.480440
