19
Iteration:   348
 C        -0.086793        -0.063625        -0.138836
 C         1.394412        -0.054684         0.051339
 O         2.142222         0.334122        -1.181144
 C         3.367801        -0.287826        -0.405386
 C         3.475728         0.993624         0.416088
 C         2.180196         0.694800         1.220169
 O         1.394722         1.669970         1.786586
 C         2.433617        -0.659597         1.969620
 C         2.314361        -1.186212         0.500482
 H        -0.563140        -0.219783         0.882893
 H        -0.295328         1.026870        -0.432389
 H        -0.385437        -0.906621        -0.812876
 H         4.080548        -0.636902        -1.153863
 H         4.321005         1.122231         1.147068
 H         3.524636         1.861905        -0.286260
 H         1.604864         1.873423         2.748363
 H         3.504035        -0.674653         2.384671
 H         1.625308        -0.854331         2.700879
 H         2.043747        -2.117907         0.240676
