19
Iteration:  4805charge 0 multiplicity 1
 C        -0.072054        -0.365641         0.184272
 C         1.394006        -0.149229         0.070572
 O         2.011562         0.098050        -1.230267
 C         3.294506        -0.222548        -0.512078
 C         3.504118         1.029671         0.342980
 C         2.165941         0.826793         1.153365
 O         1.343727         1.949548         1.810164
 C         2.507953        -0.495298         1.856102
 C         2.477737        -1.146006         0.477772
 H        -0.207369        -0.971986         1.142910
 H        -0.625247         0.546030         0.131195
 H        -0.371350        -0.876165        -0.709691
 H         4.079625        -0.597563        -1.277012
 H         4.371116         0.912502         1.043358
 H         3.365512         1.943142        -0.159475
 H         1.820026         2.130220         2.689298
 H         3.462088        -0.411868         2.492157
 H         1.800640        -1.138701         2.496771
 H         2.350228        -2.243662         0.457645
