19
Iteration:  2429charge 0 multiplicity 1
 C        -0.126394        -0.223002         0.062578
 C         1.379390        -0.119747         0.056633
 O         1.989396         0.226634        -1.210994
 C         3.285246        -0.197129        -0.458558
 C         3.472035         1.053945         0.470084
 C         2.173025         0.722301         1.252606
 O         1.558311         1.901440         1.711611
 C         2.510476        -0.685176         1.882426
 C         2.448412        -1.160692         0.470837
 H        -0.548284        -0.507066         1.071869
 H        -0.583426         0.766693         0.077507
 H        -0.567839        -0.780005        -0.742349
 H         4.008993        -0.584747        -1.229674
 H         4.289463         1.049230         1.159558
 H         3.520215         1.876082        -0.260165
 H         0.831578         1.651697         2.311344
 H         3.341825        -0.938458         2.580607
 H         1.703745        -1.261462         2.349139
 H         2.543955        -2.217847         0.298020
