19
Iteration:  2237
 C        -0.036815        -0.013365        -0.023981
 C         1.413258        -0.124219         0.067681
 O         2.101988         0.142214        -1.206966
 C         3.237765        -0.174982        -0.545322
 C         3.443440         1.071956         0.426952
 C         2.113223         0.691900         1.186593
 O         1.457129         1.755835         1.876322
 C         2.454896        -0.621433         1.953430
 C         2.464835        -1.235252         0.437366
 H        -0.411144        -0.529454         0.815134
 H        -0.157505         1.092751         0.167056
 H        -0.400220        -0.469733        -0.907508
 H         3.949963        -0.569631        -1.228416
 H         4.308750         1.334304         1.063978
 H         3.334397         1.968947        -0.176870
 H         1.013781         1.429788         2.711512
 H         3.393167        -0.582824         2.472094
 H         1.649056        -1.101294         2.506890
 H         2.293626        -2.299596         0.300580
