19
Iteration:  1675charge 0 multiplicity 1
 C        -0.183749        -0.189454         0.023593
 C         1.368129        -0.117356         0.040696
 O         2.107192         0.263890        -1.219684
 C         3.335157        -0.138638        -0.409680
 C         3.450120         1.019987         0.566880
 C         2.132712         0.721442         1.271633
 O         1.527508         1.828564         1.714711
 C         2.430519        -0.721205         1.841724
 C         2.429575        -1.160237         0.368355
 H        -0.704590        -0.537329         0.936924
 H        -0.604811         0.726378        -0.258165
 H        -0.303274        -1.092924        -0.670906
 H         4.170083        -0.379316        -1.045619
 H         4.110437         0.634386         1.369597
 H         3.605167         1.970496         0.086711
 H         1.695876         1.952610         2.667018
 H         3.383848        -0.658877         2.530244
 H         1.549962        -1.039954         2.417918
 H         2.398313        -2.242372         0.068948
