19
Iteration:   659charge 0 multiplicity 1
 C        -0.123939        -0.306397        -0.272432
 C         1.320088        -0.094769         0.059966
 O         2.101600         0.329052        -1.158771
 C         3.240977        -0.230380        -0.434126
 C         3.519704         0.954461         0.549627
 C         2.146587         0.764962         1.301494
 O         1.690559         1.925588         1.832499
 C         2.375115        -0.634036         1.901601
 C         2.301850        -1.202934         0.444455
 H        -0.549135        -0.920228         0.548264
 H        -0.745804         0.619451        -0.381156
 H        -0.397035        -0.884034        -1.156228
 H         4.051801        -0.541078        -0.992823
 H         4.280862         1.028905         1.295221
 H         3.638785         1.731239        -0.195679
 H         1.278099         1.866401         2.735699
 H         3.353874        -0.706459         2.383681
 H         1.644793        -1.177090         2.550554
 H         2.415062        -2.308626         0.297121
