19
Iteration:  2220charge 0 multiplicity 1
 C        -0.054725         0.033450        -0.080135
 C         1.440065        -0.088769         0.057824
 O         2.021571         0.165849        -1.216971
 C         3.321544        -0.281488        -0.391830
 C         3.343339         1.034897         0.362580
 C         2.200906         0.732853         1.253173
 O         1.401558         1.699000         1.894476
 C         2.571416        -0.616606         1.861369
 C         2.418990        -1.155751         0.488458
 H        -0.688530        -0.316390         0.805542
 H        -0.293868         1.065941        -0.253023
 H        -0.310379        -0.632438        -0.997155
 H         4.271965        -0.476004        -0.960040
 H         4.324433         1.080042         0.830579
 H         3.168061         1.879300        -0.333639
 H         1.170261         1.298128         2.784416
 H         3.519709        -0.747771         2.462478
 H         1.745915        -0.904984         2.553488
 H         2.426343        -2.207992         0.121882
