19
Iteration:  3411
 C         0.015873        -0.162776         0.036585
 C         1.437899        -0.122661         0.118740
 O         1.958032         0.067372        -1.209642
 C         3.307303        -0.197489        -0.516845
 C         3.408476         1.064138         0.275653
 C         2.227927         0.808939         1.096736
 O         1.431181         1.712462         1.964220
 C         2.493785        -0.466984         1.935898
 C         2.451227        -1.203869         0.559496
 H        -0.446545        -0.355224         1.004412
 H        -0.324598         0.818765        -0.455248
 H        -0.395050        -0.984283        -0.653230
 H         3.988071        -0.759184        -1.125248
 H         4.203511         1.036052         1.025581
 H         3.257968         2.015526        -0.301313
 H         0.812593         2.156672         1.292083
 H         3.440555        -0.582639         2.536158
 H         1.702415        -0.407611         2.661935
 H         2.430389        -2.274186         0.344305
