19
Iteration:     6
 C        -0.061240        -0.082931        -0.098756
 C         1.427752        -0.049236        -0.016278
 O         2.102532         0.162424        -1.183766
 C         3.312954        -0.267985        -0.371865
 C         3.479052         0.971970         0.528826
 C         2.073829         0.730564         1.164680
 O         1.469785         1.787927         1.755031
 C         2.401377        -0.615978         1.930717
 C         2.407762        -1.155387         0.485423
 H        -0.533156        -0.346547         0.875176
 H        -0.513221         0.902128        -0.350281
 H        -0.427075        -0.877948        -0.787446
 H         4.165349        -0.478493        -1.049622
 H         4.135115         0.785568         1.418713
 H         3.526373         1.944853         0.014493
 H         2.058523         2.142063         2.448490
 H         3.338010        -0.618854         2.529881
 H         1.468082        -1.016149         2.436217
 H         2.131612        -2.235859         0.315591
