19
Iteration:  4565charge 0 multiplicity 1
 C        -0.113805        -0.250860         0.037762
 C         1.411979        -0.130341         0.149007
 O         1.990874         0.033625        -1.196687
 C         3.295699        -0.153544        -0.574901
 C         3.351081         1.101144         0.294762
 C         2.149722         0.791101         1.203797
 O         1.496744         1.851707         1.734874
 C         2.527148        -0.559639         1.988812
 C         2.572651        -1.163790         0.580781
 H        -0.528054        -0.849358         0.962277
 H        -0.558900         0.697724         0.173720
 H        -0.540887        -0.761729        -0.804296
 H         4.009436        -0.497546        -1.271915
 H         4.331981         1.385961         0.801153
 H         3.116237         1.959480        -0.267929
 H         1.228991         1.847493         2.688378
 H         3.338756        -0.493686         2.644316
 H         1.806195        -1.051434         2.552428
 H         2.667285        -2.232079         0.215637
