19
Iteration:  1676
 C        -0.178533        -0.178265         0.026676
 C         1.361955        -0.133332         0.035352
 O         2.110960         0.258629        -1.219284
 C         3.330103        -0.123060        -0.407215
 C         3.451389         1.018558         0.563940
 C         2.136715         0.716345         1.268510
 O         1.522960         1.829923         1.721066
 C         2.428188        -0.709587         1.837814
 C         2.433727        -1.169396         0.367598
 H        -0.737858        -0.521695         0.929716
 H        -0.599769         0.750819        -0.262672
 H        -0.299747        -1.082123        -0.653715
 H         4.145289        -0.374235        -1.036614
 H         4.107558         0.601116         1.368037
 H         3.601746         1.960983         0.098341
 H         1.682637         1.948658         2.647659
 H         3.400431        -0.693732         2.506317
 H         1.559118        -1.027215         2.424255
 H         2.441124        -2.247678         0.099538
