19
Iteration:   928charge 0 multiplicity 1
 C        -0.081360        -0.204184        -0.051859
 C         1.404136        -0.078145         0.082354
 O         2.111064         0.232336        -1.218109
 C         3.276342        -0.284813        -0.462011
 C         3.500624         1.009367         0.447168
 C         2.167120         0.766482         1.143577
 O         1.577914         1.752962         1.913393
 C         2.314681        -0.577333         1.918316
 C         2.468705        -1.126628         0.469778
 H        -0.487179        -0.172237         0.929182
 H        -0.415176         0.754615        -0.445315
 H        -0.503291        -0.918727        -0.707825
 H         4.098938        -0.655595        -1.216974
 H         4.382576         1.068836         1.121424
 H         3.287000         1.902345        -0.148256
 H         0.678311         1.556776         2.119388
 H         2.919191        -0.601210         2.781111
 H         1.282119        -0.842045         2.215309
 H         2.150894        -2.133675         0.133325
