19
Iteration:  2693
 C        -0.115167        -0.179201         0.068962
 C         1.377024        -0.199683         0.026687
 O         2.052818        -0.002460        -1.269194
 C         3.237085        -0.208311        -0.542604
 C         3.426026         1.048679         0.405065
 C         2.143549         0.839040         1.191684
 O         1.481224         1.878079         1.892554
 C         2.559943        -0.467636         1.901166
 C         2.528771        -1.165576         0.481575
 H        -0.520735        -0.726444         0.849667
 H        -0.306054         0.929935         0.267917
 H        -0.629086        -0.498212        -0.846811
 H         4.151673        -0.568128        -1.049745
 H         4.241523         1.014504         1.114741
 H         3.266449         1.840046        -0.333112
 H         1.131259         1.388246         2.660467
 H         3.414726        -0.556738         2.638985
 H         1.623176        -0.790691         2.429939
 H         2.204985        -2.269602         0.367209
