19
Iteration:  3779
 C        -0.146747        -0.389605         0.189263
 C         1.423855        -0.136281         0.086069
 O         2.025776         0.056614        -1.240918
 C         3.283294        -0.194274        -0.498929
 C         3.492759         1.049927         0.380022
 C         2.190297         0.853971         1.102869
 O         1.519721         1.881907         1.808589
 C         2.414369        -0.459755         1.871654
 C         2.486265        -1.091572         0.498584
 H        -0.374835        -0.607094         1.201984
 H        -0.876660         0.385343         0.038457
 H        -0.566387        -1.194389        -0.548981
 H         4.263195        -0.541817        -0.964686
 H         4.380588         1.086387         1.006815
 H         3.486335         2.012368        -0.242627
 H         0.901494         1.435938         2.422467
 H         3.302078        -0.413003         2.567103
 H         1.483203        -0.831353         2.222622
 H         2.553635        -2.152039         0.124220
