19
Iteration:  3209
 C        -0.093519        -0.281877         0.118531
 C         1.393353        -0.233223        -0.006886
 O         2.047831         0.052808        -1.242306
 C         3.223917        -0.198056        -0.510006
 C         3.544279         1.120210         0.410799
 C         2.172553         0.888071         1.143933
 O         1.422453         1.826214         1.951218
 C         2.538051        -0.488260         1.878605
 C         2.423661        -1.222076         0.463525
 H        -0.413117        -0.216470         1.252267
 H        -0.606579         0.591853        -0.238626
 H        -0.514104        -1.176277        -0.324946
 H         3.958349        -0.623628        -1.248862
 H         4.347612         1.083836         1.145575
 H         3.808001         2.040602        -0.091927
 H         0.955614         2.446951         1.327975
 H         3.403352        -0.521700         2.475411
 H         1.708399        -0.662265         2.646681
 H         2.405453        -2.270653         0.203245
