19
Iteration:  3383
 C        -0.215133        -0.202955         0.051586
 C         1.320854        -0.136122         0.151412
 O         2.086992         0.083793        -1.205216
 C         3.298544        -0.202477        -0.475249
 C         3.400885         1.060948         0.333864
 C         2.179432         0.772347         1.190116
 O         1.432072         1.808716         1.830277
 C         2.628155        -0.578373         1.967161
 C         2.547868        -1.157360         0.467415
 H        -0.640166        -0.222845         1.111053
 H        -0.603440         0.735939        -0.300230
 H        -0.629782        -0.896379        -0.647975
 H         4.152913        -0.643138        -1.082137
 H         4.255043         1.130942         1.024579
 H         3.184202         1.900016        -0.336605
 H         1.361493         2.539623         1.143210
 H         3.574475        -0.512875         2.462086
 H         1.835146        -1.025348         2.686079
 H         2.285579        -2.184827         0.179852
