19
Iteration:   481charge 0 multiplicity 1
 C        -0.109465        -0.224465        -0.135501
 C         1.339916        -0.066110         0.021813
 O         2.199412         0.236104        -1.204102
 C         3.300972        -0.220071        -0.416063
 C         3.396913         1.027201         0.540969
 C         2.100035         0.705895         1.251246
 O         1.669239         1.833060         1.975603
 C         2.262829        -0.688392         1.866178
 C         2.395358        -1.166461         0.421201
 H        -0.649714        -0.608638         0.797584
 H        -0.631413         0.841313        -0.258986
 H        -0.383848        -0.813932        -1.076877
 H         4.128478        -0.492390        -1.144998
 H         4.295044         1.013888         1.223049
 H         3.341752         1.982076        -0.055695
 H         1.941167         2.515436         1.287810
 H         3.123799        -0.785050         2.652012
 H         1.309150        -1.235592         2.179237
 H         2.400733        -2.154968        -0.061615
