19
Iteration:  2864charge 0 multiplicity 1
 C        -0.100997        -0.189826         0.169069
 C         1.419842        -0.149375         0.155063
 O         2.055073         0.100561        -1.222031
 C         3.234752        -0.202634        -0.507360
 C         3.467035         1.075539         0.368741
 C         2.141406         0.786962         1.121401
 O         1.345596         1.799793         1.709397
 C         2.571949        -0.522910         1.971692
 C         2.451844        -1.197748         0.476951
 H        -0.554330        -0.729557         1.065664
 H        -0.446697         0.839757         0.079586
 H        -0.374090        -0.736030        -0.725901
 H         4.022566        -0.640479        -1.145874
 H         4.399291         1.096461         0.943997
 H         3.621022         1.872079        -0.355884
 H         1.792414         2.099047         2.560542
 H         3.620253        -0.388566         2.317029
 H         1.915819        -1.031712         2.693082
 H         2.357942        -2.208720         0.168152
