19
Iteration:  2283
 C        -0.055098        -0.347732         0.095889
 C         1.415594        -0.042649        -0.014052
 O         2.082982         0.289818        -1.218100
 C         3.350292        -0.165179        -0.575484
 C         3.435797         0.972120         0.497762
 C         2.127425         0.765787         1.201273
 O         1.649618         1.923388         1.855750
 C         2.346880        -0.679461         1.925183
 C         2.319760        -1.201221         0.444633
 H        -0.387629        -1.027305         0.837364
 H        -0.687998         0.532969         0.148027
 H        -0.269151        -0.869538        -0.871334
 H         4.099297        -0.614143        -1.236511
 H         4.255452         0.857793         1.150952
 H         3.520872         1.998248         0.294999
 H         0.683729         1.998610         2.030915
 H         3.295819        -0.833084         2.428640
 H         1.457081        -1.033408         2.453706
 H         2.039479        -2.248787         0.127224
