19
Iteration:  2225
 C        -0.000290         0.009379        -0.052152
 C         1.454401        -0.088038         0.055095
 O         2.048235         0.162892        -1.194169
 C         3.279990        -0.239943        -0.420722
 C         3.335950         1.011494         0.356921
 C         2.171034         0.741612         1.271263
 O         1.413153         1.695632         1.881944
 C         2.547460        -0.595787         1.869456
 C         2.434408        -1.188955         0.486781
 H        -0.624852        -0.307083         0.747867
 H        -0.399537         1.046414        -0.290934
 H        -0.367245        -0.375133        -0.975733
 H         4.163320        -0.441706        -0.996611
 H         4.334868         1.021818         0.878561
 H         3.097612         1.769901        -0.407953
 H         1.152790         1.342860         2.725897
 H         3.452616        -0.781237         2.415102
 H         1.731091        -0.865707         2.536577
 H         2.407380        -2.166711         0.037569
