19
Iteration:  2755
 C        -0.046484        -0.278082         0.075629
 C         1.418863        -0.042029         0.074270
 O         1.988613         0.141468        -1.145575
 C         3.246089        -0.186545        -0.523796
 C         3.507303         1.032068         0.359610
 C         2.128007         0.764639         1.147357
 O         1.492296         1.862116         1.833057
 C         2.507494        -0.597359         1.915801
 C         2.447576        -1.137855         0.495490
 H        -0.418480        -0.088546         1.185808
 H        -0.659853         0.364008        -0.514682
 H        -0.287729        -1.303458        -0.171413
 H         3.947688        -0.716019        -1.177734
 H         4.398186         0.915164         1.012466
 H         3.705952         1.917615        -0.249336
 H         0.536984         1.748426         1.676745
 H         3.444084        -0.692467         2.448306
 H         1.716890        -0.907043         2.548629
 H         2.422534        -2.165746         0.181716
