19
Iteration:   712
 C        -0.019462         0.082486         0.012453
 C         1.477932        -0.094781        -0.022452
 O         2.135573         0.136934        -1.276976
 C         3.372639        -0.288002        -0.380186
 C         3.433168         1.068617         0.390204
 C         2.179938         0.761184         1.200174
 O         1.413559         1.729294         1.914904
 C         2.389225        -0.667100         1.900804
 C         2.350720        -1.210699         0.459799
 H        -0.307663        -0.184993         1.090410
 H        -0.280158         1.161809        -0.087445
 H        -0.632887        -0.696312        -0.469608
 H         4.214795        -0.730731        -0.743540
 H         4.277079         1.119818         1.079631
 H         3.355981         1.975792        -0.203341
 H         0.514883         1.302723         1.972825
 H         3.179596        -0.787408         2.660236
 H         1.353223        -0.893143         2.337089
 H         2.342638        -2.169621        -0.105025
