19
Iteration:  4528
 C        -0.122646        -0.324271         0.148276
 C         1.385102        -0.098072        -0.000807
 O         2.047610         0.043228        -1.199396
 C         3.271235        -0.222734        -0.528309
 C         3.428563         1.102541         0.362587
 C         2.049352         0.782375         1.115774
 O         1.531903         1.876380         1.859805
 C         2.577988        -0.516284         1.937724
 C         2.502344        -1.120067         0.533480
 H        -0.320974        -0.679254         1.105518
 H        -0.694007         0.609551        -0.167514
 H        -0.478626        -1.056415        -0.636752
 H         4.066522        -0.509976        -1.267389
 H         4.275132         1.075017         0.970738
 H         3.312368         1.995804        -0.299749
 H         0.591889         1.717684         1.956152
 H         3.584186        -0.178057         2.298200
 H         1.860504        -0.909455         2.761691
 H         2.437195        -2.239697         0.358999
