19
Iteration:  2701charge 0 multiplicity 1
 C        -0.118196        -0.118397         0.105836
 C         1.411211        -0.250443         0.125727
 O         2.048501         0.005750        -1.303486
 C         3.293149        -0.166116        -0.536254
 C         3.387339         1.051270         0.429024
 C         2.075392         0.790681         1.157998
 O         1.484005         1.884085         1.836057
 C         2.531705        -0.504642         1.894939
 C         2.518014        -1.203887         0.491348
 H        -0.681637        -0.533328         0.982005
 H        -0.212586         0.933445         0.167655
 H        -0.698022        -0.423646        -0.717786
 H         4.221058        -0.396342        -1.076436
 H         4.320729         1.050251         0.994173
 H         3.566217         1.970507        -0.146283
 H         1.056834         1.427712         2.560119
 H         3.486371        -0.419842         2.378881
 H         1.815527        -0.988957         2.484498
 H         2.426296        -2.262159         0.291994
