19
Iteration:  4686
 C        -0.061394        -0.317034         0.075113
 C         1.433575        -0.123371         0.013547
 O         1.978553         0.098004        -1.237750
 C         3.263373        -0.206132        -0.485969
 C         3.391957         1.050665         0.344649
 C         2.148843         0.767949         1.182022
 O         1.487581         1.827540         1.896222
 C         2.519566        -0.503672         1.923322
 C         2.482854        -1.135031         0.530922
 H        -0.336838        -0.136445         1.191529
 H        -0.601959         0.287076        -0.636748
 H        -0.391512        -1.293829        -0.262794
 H         4.264804        -0.405465        -0.980161
 H         4.184250         1.251039         1.174395
 H         3.100943         1.903237        -0.256075
 H         1.466823         2.633307         1.402967
 H         3.450305        -0.557897         2.513374
 H         1.778347        -0.952615         2.604618
 H         2.483994        -2.161943         0.182230
