19
Iteration:   592
 C        -0.179221        -0.137495        -0.090020
 C         1.335059        -0.148087        -0.026577
 O         2.151313         0.182146        -1.292378
 C         3.341440        -0.183561        -0.387362
 C         3.450265         1.032619         0.498025
 C         2.049166         0.718818         1.288479
 O         1.697561         1.831599         1.942900
 C         2.321642        -0.673798         1.871149
 C         2.451273        -1.130802         0.435076
 H        -0.323380        -0.347444         0.995191
 H        -0.443912         0.878375        -0.539981
 H        -0.646725        -0.983999        -0.679038
 H         4.096223        -0.470738        -1.052850
 H         4.300509         1.052259         1.195037
 H         3.327489         1.998567         0.020563
 H         0.770761         1.993628         1.974756
 H         3.195012        -0.838329         2.530443
 H         1.453250        -1.217698         2.390571
 H         2.470036        -2.234739         0.163312
