19
Iteration:  2488
 C        -0.222043        -0.451426        -0.031998
 C         1.296128        -0.080527         0.036193
 O         2.071646         0.110216        -1.272699
 C         3.232974        -0.192850        -0.488704
 C         3.484492         1.023579         0.433804
 C         2.208167         0.825545         1.223243
 O         1.692729         1.966910         2.015702
 C         2.477947        -0.476755         1.897337
 C         2.318104        -1.149355         0.408470
 H        -0.255369        -1.233749         0.657964
 H        -0.898008         0.464105        -0.004798
 H        -0.331190        -1.025910        -0.990126
 H         4.042462        -0.499712        -1.139016
 H         4.356774         0.787898         1.111076
 H         3.743645         1.917033        -0.127763
 H         0.874575         1.709439         2.417921
 H         3.513459        -0.491604         2.167444
 H         1.698993        -0.801367         2.584584
 H         2.483631        -2.246800         0.168571
