19
Iteration:  3639charge 0 multiplicity 1
 C        -0.125597        -0.501973         0.085494
 C         1.406563        -0.181601        -0.011351
 O         1.973361         0.123650        -1.242586
 C         3.226756        -0.169498        -0.577254
 C         3.427457         1.032994         0.432419
 C         2.091617         0.831302         1.208117
 O         1.689244         2.026796         1.865281
 C         2.404043        -0.526602         1.944572
 C         2.543239        -1.106262         0.528474
 H        -0.363084        -0.501200         1.141257
 H        -0.712923         0.351786        -0.352529
 H        -0.388666        -1.288278        -0.639435
 H         4.018338        -0.471145        -1.368946
 H         4.309980         0.826403         1.111285
 H         3.617794         1.910318        -0.298453
 H         0.913166         1.787824         2.452389
 H         3.348084        -0.658189         2.517446
 H         1.588177        -0.992683         2.475314
 H         2.388793        -2.121188         0.142804
