19
Iteration:  1900charge 0 multiplicity 1
 C        -0.142846         0.011245        -0.191532
 C         1.354961        -0.101341         0.006176
 O         2.104969         0.038018        -1.287104
 C         3.310548        -0.118191        -0.473409
 C         3.456353         1.066797         0.536782
 C         2.160867         0.689687         1.278544
 O         1.466676         1.696115         2.084075
 C         2.559978        -0.601615         1.881970
 C         2.341876        -1.213566         0.444703
 H        -0.719516        -0.038146         0.727299
 H        -0.276879         1.062118        -0.679304
 H        -0.556855        -0.686880        -0.979716
 H         4.298438        -0.166014        -1.028609
 H         4.435388         0.789246         0.914774
 H         3.571405         2.044811        -0.038930
 H         0.657596         2.127259         1.780376
 H         3.645626        -0.569660         2.143235
 H         2.028443        -1.028430         2.831774
 H         2.273661        -2.308457         0.260033
