19
Iteration:  3086
 C        -0.162727        -0.143785         0.181599
 C         1.427092        -0.168127         0.042632
 O         2.022333         0.046617        -1.230167
 C         3.297412        -0.174220        -0.540183
 C         3.351105         1.062427         0.429161
 C         2.124640         0.714178         1.197594
 O         1.427217         1.848508         1.701160
 C         2.585231        -0.603715         1.962875
 C         2.567375        -1.180584         0.552037
 H        -0.611053        -0.494219         1.112192
 H        -0.517593         0.886523         0.066448
 H        -0.625695        -0.700413        -0.656803
 H         4.133379        -0.238083        -1.217870
 H         4.171422         1.294197         1.073959
 H         3.205757         1.925713        -0.227359
 H         1.976829         2.652215         1.555629
 H         3.540229        -0.571337         2.484706
 H         1.748268        -1.077241         2.426570
 H         2.505550        -2.303918         0.406793
