19
Iteration:    75charge 0 multiplicity 1
 C        -0.038037        -0.181059        -0.104266
 C         1.429826        -0.041834        -0.064068
 O         2.155300         0.149260        -1.316731
 C         3.277380        -0.275354        -0.373550
 C         3.454291         1.007481         0.461672
 C         2.127076         0.769166         1.210217
 O         1.619869         1.772571         1.956706
 C         2.283810        -0.507982         1.944313
 C         2.344989        -1.133626         0.517450
 H        -0.395510        -0.429254         0.878383
 H        -0.490340         0.756286        -0.411750
 H        -0.311969        -1.014305        -0.738305
 H         4.103055        -0.735755        -0.898870
 H         4.334245         0.927991         1.154828
 H         3.377495         1.817871        -0.284199
 H         0.658749         1.510861         2.101819
 H         3.149892        -0.496630         2.634371
 H         1.414345        -0.822029         2.438461
 H         2.221914        -2.121994         0.254944
