19
Iteration:  2596
 C        -0.063138        -0.285630         0.119882
 C         1.429925        -0.090061         0.037277
 O         1.982428         0.210586        -1.216301
 C         3.235859        -0.218529        -0.431037
 C         3.499557         1.051330         0.350296
 C         2.153651         0.756997         1.189278
 O         1.587651         1.882919         1.846983
 C         2.436567        -0.621287         1.883966
 C         2.452031        -1.154105         0.520547
 H        -0.524433        -0.293267         1.101479
 H        -0.679811         0.465742        -0.553989
 H        -0.240303        -1.288781        -0.393635
 H         3.958601        -0.466127        -1.210790
 H         4.458881         1.115119         0.847173
 H         3.300639         1.742560        -0.466795
 H         0.646335         1.680180         1.771861
 H         3.312057        -0.696661         2.602464
 H         1.524165        -0.997166         2.464631
 H         2.402052        -2.233288         0.180100
