19
Iteration:  2323
 C        -0.229003        -0.375392        -0.136583
 C         1.327487        -0.107355         0.091615
 O         2.022151         0.230596        -1.183533
 C         3.313346        -0.150569        -0.531456
 C         3.527665         0.999729         0.483986
 C         2.152212         0.751731         1.212101
 O         1.711698         1.933521         1.945503
 C         2.444969        -0.602247         1.881117
 C         2.377007        -1.148447         0.469886
 H        -0.772647        -0.646373         0.778995
 H        -0.753330         0.513621        -0.671608
 H        -0.335551        -1.213054        -0.827069
 H         4.074451        -0.383226        -1.260366
 H         4.321974         0.701811         1.297852
 H         3.756307         2.000740         0.009963
 H         0.801570         1.659532         2.167472
 H         3.411485        -0.861578         2.373656
 H         1.531845        -0.804369         2.473049
 H         2.272347        -2.210453         0.294323
