19
Iteration:   409charge 0 multiplicity 1
 C        -0.037929        -0.039410        -0.082358
 C         1.365346        -0.111734        -0.045983
 O         2.204979         0.227591        -1.247026
 C         3.258522        -0.223296        -0.397758
 C         3.394477         1.041181         0.554556
 C         2.117715         0.722767         1.222973
 O         1.569858         1.720448         1.946205
 C         2.320911        -0.676474         1.855104
 C         2.420943        -1.221497         0.446593
 H        -0.390388        -0.154208         0.913835
 H        -0.418863         0.870549        -0.429092
 H        -0.518099        -0.725670        -0.737085
 H         4.069539        -0.627934        -0.963977
 H         4.155313         1.135893         1.310949
 H         3.269943         1.874222        -0.115479
 H         1.374704         2.501969         1.344265
 H         3.181856        -0.802062         2.463979
 H         1.488636        -0.954589         2.490686
 H         2.323388        -2.410254         0.372266
