19
Iteration:   261charge 0 multiplicity 1
 C        -0.106816        -0.211948        -0.160269
 C         1.372765        -0.063139        -0.035353
 O         2.146925         0.198010        -1.237910
 C         3.290152        -0.303753        -0.403411
 C         3.497324         1.054146         0.494602
 C         2.122686         0.763738         1.235753
 O         1.607133         1.897865         2.030669
 C         2.421353        -0.681253         1.881709
 C         2.285953        -1.189216         0.433543
 H        -0.493205        -0.713965         0.759309
 H        -0.699432         0.714162        -0.331688
 H        -0.374563        -0.996713        -0.891732
 H         4.158075        -0.552267        -1.031298
 H         4.276149         1.144908         1.298757
 H         3.466413         1.919462        -0.223301
 H         0.641839         2.041422         1.858780
 H         3.506757        -0.601736         2.262663
 H         1.643014        -0.943067         2.622240
 H         2.223267        -2.185743         0.110906
