19
Iteration:  1559charge 0 multiplicity 1
 C        -0.137597         0.018014        -0.112144
 C         1.359700        -0.107528        -0.002349
 O         2.102480         0.138180        -1.244406
 C         3.291285        -0.180578        -0.488597
 C         3.513569         1.041986         0.484390
 C         2.165607         0.739567         1.195516
 O         1.427306         1.612259         1.988160
 C         2.525619        -0.615383         1.947839
 C         2.471653        -1.146275         0.532492
 H        -0.765498        -0.046234         0.847310
 H        -0.453729         0.992582        -0.646027
 H        -0.599202        -0.781702        -0.788200
 H         4.122576        -0.495723        -1.158478
 H         4.474914         0.952411         1.155560
 H         3.665982         1.913655        -0.235591
 H         0.548911         1.838212         1.554479
 H         3.359259        -0.749330         2.660036
 H         1.544969        -0.712151         2.394049
 H         2.358774        -2.144767         0.111765
