19
Iteration:  1707charge 0 multiplicity 1
 C        -0.013474         0.051635        -0.012189
 C         1.431260        -0.102147         0.042590
 O         2.054111         0.162374        -1.270125
 C         3.357742        -0.226247        -0.487314
 C         3.416914         1.036107         0.384782
 C         2.126791         0.694621         1.252443
 O         1.357894         1.690732         1.899528
 C         2.421027        -0.626803         1.948859
 C         2.531544        -1.160564         0.419198
 H        -0.562419        -0.049429         0.911372
 H        -0.335174         0.940397        -0.509975
 H        -0.399467        -0.826420        -0.663025
 H         4.083083        -0.590325        -1.203525
 H         4.208194         0.963435         1.171508
 H         3.572783         1.947380        -0.188821
 H         1.480977         1.730483         2.894729
 H         3.251297        -0.651302         2.743870
 H         1.542012        -1.099656         2.409838
 H         2.308506        -2.235828         0.248671
