19
Iteration:  4360
 C        -0.120767        -0.310621         0.103997
 C         1.391482        -0.201290         0.085596
 O         1.984286         0.107418        -1.188156
 C         3.268148        -0.158034        -0.551478
 C         3.465162         1.077659         0.330337
 C         2.167017         0.819887         1.198279
 O         1.370196         1.816517         1.701459
 C         2.591766        -0.496394         1.957271
 C         2.490922        -1.121403         0.560360
 H        -0.110986        -0.905270         1.063083
 H        -0.646339         0.640130         0.094992
 H        -0.596981        -0.946055        -0.594605
 H         4.097078        -0.470840        -1.186552
 H         4.377821         0.873370         0.934242
 H         3.542076         1.819148        -0.397486
 H         1.626465         2.111106         2.564416
 H         3.655724        -0.512350         2.382918
 H         1.831958        -0.800182         2.715035
 H         2.501456        -2.127822         0.461005
