19
Iteration:    83
 C        -0.148131        -0.213894        -0.166227
 C         1.403834        -0.073848        -0.084539
 O         2.218554         0.119259        -1.271764
 C         3.305670        -0.252408        -0.435905
 C         3.422321         0.970086         0.498591
 C         2.095728         0.808220         1.188387
 O         1.629155         1.843764         2.003686
 C         2.391964        -0.529719         1.906655
 C         2.334882        -1.142222         0.514730
 H        -0.397821        -0.395748         0.909182
 H        -0.715125         0.741581        -0.355098
 H        -0.681000        -0.981430        -0.784459
 H         4.193479        -0.694389        -0.904156
 H         4.325025         0.869453         1.180974
 H         3.519943         1.965122         0.001473
 H         0.637428         1.749088         2.113583
 H         3.247621        -0.647452         2.639026
 H         1.428589        -0.813886         2.517803
 H         2.222942        -2.212135         0.378482
