19
Iteration:  3117charge 0 multiplicity 1
 C        -0.071308        -0.349126         0.077051
 C         1.362469        -0.072216         0.044867
 O         2.052570         0.013188        -1.185610
 C         3.262193        -0.224195        -0.488126
 C         3.441584         1.082499         0.251236
 C         2.150000         0.837532         1.118445
 O         1.507591         1.782343         1.961735
 C         2.443347        -0.469996         1.883303
 C         2.454592        -1.095831         0.577149
 H        -0.552910        -0.685024         0.920802
 H        -0.710145         0.561165        -0.104974
 H        -0.313620        -1.042602        -0.779159
 H         4.071828        -0.404078        -1.199929
 H         4.373242         1.313123         0.795011
 H         3.364604         1.746403        -0.638214
 H         2.065498         2.537257         2.216773
 H         3.367579        -0.480097         2.567298
 H         1.655308        -0.855458         2.472220
 H         2.204595        -2.149306         0.242065
