19
Iteration:  4473charge 0 multiplicity 1
 C        -0.126151        -0.417685         0.081187
 C         1.373455        -0.129887         0.112312
 O         1.982215         0.167730        -1.172520
 C         3.269815        -0.181166        -0.535747
 C         3.371317         1.059216         0.357715
 C         2.145642         0.761260         1.179263
 O         1.586608         1.860948         1.825312
 C         2.542183        -0.502936         1.901487
 C         2.540195        -1.125732         0.526700
 H        -0.594083        -0.371356         1.039675
 H        -0.616438         0.337747        -0.624191
 H        -0.399875        -1.466571        -0.246383
 H         4.146723        -0.435692        -1.220290
 H         4.261122         1.049105         0.897895
 H         3.266400         1.949470        -0.315405
 H         0.931151         2.260291         1.269659
 H         3.209962        -0.465472         2.785561
 H         1.677145        -0.855726         2.531964
 H         2.629605        -2.234687         0.436578
