19
Iteration:  2541
 C        -0.153846        -0.081854         0.012941
 C         1.415999        -0.230116         0.102301
 O         1.963412         0.053366        -1.218569
 C         3.300936        -0.156833        -0.505870
 C         3.370700         1.082123         0.385873
 C         2.141974         0.683205         1.192647
 O         1.515645         1.865093         1.820300
 C         2.549559        -0.621542         1.889213
 C         2.566260        -1.135357         0.526447
 H        -0.448813         0.110372         1.035017
 H        -0.236830         1.035786        -0.431838
 H        -0.671467        -0.853113        -0.604248
 H         4.034915        -0.491321        -1.211940
 H         4.265651         1.192776         0.997563
 H         3.370328         2.039574        -0.090688
 H         1.149516         1.520844         2.618273
 H         3.445852        -0.658535         2.573058
 H         1.723006        -1.100498         2.505942
 H         2.409249        -2.191484         0.205197
