19
Iteration:  3895charge 0 multiplicity 1
 C        -0.103286        -0.303881         0.228622
 C         1.399030        -0.161289         0.078345
 O         2.076191         0.094813        -1.195311
 C         3.319144        -0.234510        -0.458806
 C         3.411281         1.079758         0.297367
 C         2.194889         0.857520         1.179506
 O         1.417228         1.851824         1.718284
 C         2.511294        -0.529899         1.865556
 C         2.454219        -1.142101         0.483967
 H        -0.187472        -0.252401         1.351539
 H        -0.501368         0.636346        -0.253926
 H        -0.608551        -1.167875        -0.247915
 H         4.197764        -0.583411        -1.017267
 H         4.291760         1.402777         0.929678
 H         3.272250         1.946740        -0.373857
 H         1.093800         1.533078         2.619205
 H         3.334303        -0.536171         2.569986
 H         1.530942        -0.858171         2.262921
 H         2.449722        -2.273252         0.160019
