19
Iteration:  2130
 C        -0.100511        -0.409209         0.002901
 C         1.328192        -0.044599        -0.037754
 O         2.005670         0.337663        -1.264170
 C         3.292533        -0.196092        -0.402439
 C         3.541950         0.968316         0.620647
 C         2.141112         0.764550         1.195251
 O         1.676026         1.892477         1.888116
 C         2.359525        -0.691924         1.870784
 C         2.439328        -1.123084         0.377913
 H        -0.518091        -0.324061         0.967730
 H        -0.772416         0.275963        -0.621797
 H        -0.344965        -1.382794        -0.486322
 H         3.931156        -0.514679        -1.214022
 H         4.323468         0.801121         1.329593
 H         3.546868         1.900412         0.115118
 H         0.713365         2.058460         1.777033
 H         3.345800        -0.734823         2.394159
 H         1.578060        -1.013575         2.633083
 H         2.279134        -2.171810         0.066107
