19
Iteration:    62charge 0 multiplicity 1
 C         0.049365        -0.122998        -0.023616
 C         1.502360         0.007702         0.067717
 O         2.058002         0.157248        -1.242012
 C         3.339962        -0.294577        -0.373215
 C         3.509103         1.013381         0.404327
 C         2.185606         0.766331         1.155154
 O         1.507096         1.804474         1.854939
 C         2.194554        -0.637978         1.930049
 C         2.367655        -1.170800         0.492259
 H        -0.552921        -0.363584         0.858430
 H        -0.403464         0.723572        -0.584460
 H        -0.028610        -0.904055        -0.801363
 H         4.149920        -0.665413        -1.005183
 H         4.449897         1.395331         0.948861
 H         3.402329         1.906451        -0.265916
 H         0.833585         1.415744         2.385071
 H         2.975789        -0.868614         2.728278
 H         1.139624        -0.810295         2.384459
 H         2.221607        -2.166877         0.185097
