19
Iteration:  4751
 C        -0.074787        -0.275228         0.014698
 C         1.378670        -0.265542         0.144215
 O         2.045089         0.097469        -1.213005
 C         3.249583        -0.198953        -0.483651
 C         3.306249         1.044346         0.372103
 C         2.153721         0.812010         1.168559
 O         1.441125         1.927129         1.904916
 C         2.618247        -0.531801         1.899958
 C         2.501431        -1.219286         0.457399
 H        -0.357361        -0.532093         1.145920
 H        -0.433760         0.755557        -0.122940
 H        -0.543936        -0.963627        -0.703294
 H         4.166098        -0.443875        -1.156003
 H         4.207597         1.333813         1.033534
 H         3.222876         1.910636        -0.263404
 H         1.492470         2.654401         1.194638
 H         3.660929        -0.484186         2.416396
 H         1.812285        -0.927426         2.644199
 H         2.397285        -2.309214         0.336515
