19
Iteration:  4829charge 0 multiplicity 1
 C        -0.116724        -0.381490         0.193929
 C         1.371600        -0.082919         0.026603
 O         2.065152         0.125655        -1.237148
 C         3.271025        -0.184577        -0.435109
 C         3.382471         1.083312         0.302200
 C         2.164847         0.785042         1.161780
 O         1.503817         1.871584         1.721999
 C         2.561855        -0.536445         1.945629
 C         2.443440        -1.130424         0.512944
 H        -0.272961        -0.800159         1.222682
 H        -0.704076         0.521756        -0.057804
 H        -0.458240        -1.026990        -0.659920
 H         4.047304        -0.556616        -1.207074
 H         4.198794         1.101800         1.095327
 H         3.268112         1.980302        -0.304492
 H         1.210198         1.615534         2.615746
 H         3.553661        -0.586420         2.546709
 H         1.777439        -0.903250         2.686739
 H         2.341286        -2.145446         0.269367
