19
Iteration:   589
 C        -0.145678        -0.098754        -0.087014
 C         1.344138        -0.116430        -0.018608
 O         2.131642         0.177244        -1.285682
 C         3.313522        -0.175599        -0.372424
 C         3.446453         1.045015         0.503705
 C         2.039672         0.672737         1.284227
 O         1.681653         1.837279         1.925536
 C         2.332124        -0.679231         1.873908
 C         2.463710        -1.169282         0.430051
 H        -0.306877        -0.367180         0.986612
 H        -0.464283         0.870585        -0.608967
 H        -0.596109        -0.965575        -0.655278
 H         4.187516        -0.570139        -1.017762
 H         4.384818         1.064967         1.142251
 H         3.315710         2.009081        -0.029400
 H         0.710623         1.951232         1.982975
 H         3.234985        -0.801892         2.541612
 H         1.505962        -1.198396         2.422698
 H         2.501880        -2.184222         0.103794
