19
Iteration:   347
 C        -0.098294        -0.069173        -0.141260
 C         1.403661        -0.052630         0.051070
 O         2.140482         0.340747        -1.179087
 C         3.371396        -0.296096        -0.408244
 C         3.485501         0.995632         0.418470
 C         2.173074         0.692691         1.209485
 O         1.400163         1.676115         1.785468
 C         2.436770        -0.668582         1.968498
 C         2.311828        -1.179723         0.513653
 H        -0.572805        -0.227460         0.882703
 H        -0.346454         1.031789        -0.428410
 H        -0.399888        -0.921795        -0.819437
 H         4.079758        -0.630526        -1.143277
 H         4.306596         1.151556         1.162701
 H         3.524377         1.863203        -0.278654
 H         1.582135         1.865818         2.753744
 H         3.499816        -0.668637         2.377198
 H         1.633008        -0.879849         2.703045
 H         2.039969        -2.141451         0.216139
