19
Iteration:  2962
 C        -0.094913        -0.414003        -0.197352
 C         1.291940        -0.123411         0.079262
 O         1.985196         0.097262        -1.062260
 C         3.188311        -0.260146        -0.485703
 C         3.382043         1.118717         0.253457
 C         2.175010         0.788484         1.236628
 O         1.660442         1.912582         1.983731
 C         2.498199        -0.485073         1.930641
 C         2.441109        -1.179369         0.549338
 H        -0.655150        -0.648560         0.762977
 H        -0.576077         0.211645        -1.002517
 H         0.093977        -1.403098        -0.637710
 H         3.875689        -0.512529        -1.365776
 H         4.331693         1.329181         0.881606
 H         3.384013         2.010494        -0.425888
 H         1.987444         2.812508         1.700983
 H         3.557613        -0.615903         2.403831
 H         1.630387        -0.644800         2.654316
 H         2.460204        -2.259893         0.376591
