19
Iteration:   259
 C        -0.096927        -0.197897        -0.168134
 C         1.370293        -0.034347        -0.043977
 O         2.139091         0.189243        -1.243696
 C         3.272383        -0.298637        -0.418316
 C         3.505461         1.046658         0.498428
 C         2.101783         0.767497         1.255866
 O         1.601152         1.894378         2.024165
 C         2.441941        -0.684272         1.885236
 C         2.293732        -1.210716         0.451082
 H        -0.454169        -0.716429         0.759411
 H        -0.721568         0.739747        -0.346639
 H        -0.353278        -1.025970        -0.894074
 H         4.146706        -0.574676        -0.982926
 H         4.270698         1.129934         1.300139
 H         3.510378         1.915775        -0.184996
 H         0.620945         2.018790         1.830641
 H         3.518826        -0.585047         2.221862
 H         1.688240        -0.951491         2.675315
 H         2.278290        -2.164515         0.088787
