19
Iteration:  4009charge 0 multiplicity 1
 C        -0.140226        -0.364687         0.040354
 C         1.345038        -0.259118        -0.039795
 O         2.054761         0.003910        -1.217092
 C         3.257277        -0.124257        -0.474972
 C         3.404636         1.054230         0.377193
 C         2.173826         0.847403         1.277614
 O         1.546419         1.908238         1.916565
 C         2.493193        -0.502531         1.911987
 C         2.472240        -1.084457         0.522997
 H        -0.526034        -0.729302         0.991135
 H        -0.449926         0.586582        -0.385793
 H        -0.665983        -1.061120        -0.741183
 H         3.898666        -0.498432        -1.256272
 H         4.320976         1.024542         0.936387
 H         3.442196         1.987146        -0.182375
 H         1.538842         2.738056         1.343194
 H         3.498396        -0.526203         2.509811
 H         1.644632        -1.045768         2.380017
 H         2.612741        -2.092126         0.308997
