19
Iteration:  4634charge 0 multiplicity 1
 C         0.027734        -0.360552         0.063060
 C         1.420267        -0.090735         0.146785
 O         1.989286         0.142822        -1.223617
 C         3.178085        -0.236767        -0.531119
 C         3.400373         1.052750         0.351718
 C         2.153916         0.766387         1.205019
 O         1.428536         1.819325         1.774994
 C         2.463239        -0.495198         1.916365
 C         2.518413        -1.145955         0.516478
 H        -0.245701        -0.574638         1.120392
 H        -0.520563         0.597731        -0.109711
 H        -0.230891        -1.254585        -0.535442
 H         4.088444        -0.556124        -1.178439
 H         4.291017         1.296066         1.030705
 H         3.394123         2.020535        -0.232997
 H         2.017912         2.536536         2.009757
 H         3.404913        -0.529570         2.476457
 H         1.735266        -0.844762         2.597697
 H         2.431063        -2.188070         0.445585
