19
Iteration:   472
 C        -0.125933        -0.247517        -0.168945
 C         1.402269        -0.089119         0.000665
 O         2.125431         0.273167        -1.196664
 C         3.275329        -0.170300        -0.427183
 C         3.468573         0.923874         0.576395
 C         2.058413         0.685493         1.227505
 O         1.683578         1.815332         1.973403
 C         2.262274        -0.582744         1.926022
 C         2.394757        -1.156557         0.363890
 H        -0.519826        -0.743757         0.721638
 H        -0.481697         0.788771        -0.337102
 H        -0.335607        -0.875275        -1.058028
 H         4.179838        -0.472416        -0.980827
 H         4.284529         0.836615         1.316434
 H         3.543409         1.823870        -0.046380
 H         1.595140         2.646209         1.417686
 H         3.218076        -0.765506         2.447281
 H         1.417143        -0.964409         2.566281
 H         2.335484        -2.265636         0.024981
