19
Iteration:  1389
 C        -0.075021         0.015841         0.090251
 C         1.414501        -0.167084         0.061117
 O         2.081629         0.079375        -1.262264
 C         3.322257        -0.131913        -0.475044
 C         3.532347         1.021275         0.568832
 C         2.156613         0.760027         1.210350
 O         1.324906         1.756661         1.758494
 C         2.441591        -0.577903         1.889980
 C         2.465801        -1.240064         0.359211
 H        -0.469246        -0.181507         1.086968
 H        -0.417185         0.974764        -0.222537
 H        -0.776143        -0.591048        -0.515890
 H         4.208322        -0.289922        -1.179046
 H         4.369196         0.857156         1.268671
 H         3.694642         1.967803         0.002328
 H         1.333584         1.552694         2.739984
 H         3.299731        -0.740091         2.510067
 H         1.520860        -1.037988         2.389563
 H         2.636294        -2.273957        -0.014371
