19
Iteration:   989charge 0 multiplicity 1
 C        -0.145374        -0.395488        -0.322850
 C         1.278909        -0.076007         0.015146
 O         2.052196         0.254474        -1.150678
 C         3.238086        -0.234066        -0.471594
 C         3.492487         0.946394         0.474334
 C         2.153942         0.801522         1.186929
 O         1.790721         1.926663         2.009498
 C         2.326458        -0.532212         1.919065
 C         2.389446        -1.148519         0.568539
 H        -0.601559        -0.960388         0.516720
 H        -0.605551         0.586678        -0.545020
 H        -0.108035        -1.141098        -1.205831
 H         4.090187        -0.581275        -1.036700
 H         4.382553         1.029701         1.114806
 H         3.422278         1.847845        -0.156314
 H         1.072876         1.473384         2.420118
 H         3.314780        -0.651300         2.522181
 H         1.453827        -0.891018         2.478329
 H         2.297500        -2.156612         0.195342
