19
Iteration:  2216
 C        -0.122191         0.027465        -0.108840
 C         1.394796        -0.086808         0.061630
 O         2.014669         0.155062        -1.240914
 C         3.349940        -0.290379        -0.394336
 C         3.388097         1.077300         0.376179
 C         2.213072         0.721887         1.216402
 O         1.397816         1.703048         1.918524
 C         2.588900        -0.641440         1.893366
 C         2.414872        -1.149646         0.470717
 H        -0.618929        -0.295985         0.758600
 H        -0.196189         1.163784        -0.243160
 H        -0.269232        -0.754080        -0.843304
 H         4.230541        -0.608281        -0.919363
 H         4.343078         1.278541         0.880569
 H         3.304005         1.966246        -0.197274
 H         1.188373         1.332534         2.760542
 H         3.548138        -0.667557         2.414362
 H         1.758272        -1.015816         2.529922
 H         2.382243        -2.252106         0.304771
