19
Iteration:   111
 C        -0.165935        -0.247610        -0.300679
 C         1.370986        -0.169903         0.007288
 O         2.013421         0.122843        -1.231927
 C         3.263720        -0.176532        -0.318818
 C         3.454924         1.002120         0.612548
 C         2.112602         0.798279         1.311895
 O         1.724699         2.025153         1.878424
 C         2.437014        -0.717193         1.912576
 C         2.416806        -1.165577         0.434545
 H        -0.841988        -0.591404         0.487397
 H        -0.453022         0.765069        -0.536506
 H        -0.416325        -0.817942        -1.182043
 H         4.133489        -0.661637        -0.795328
 H         4.377000         1.043981         1.122092
 H         3.485951         1.943035         0.060577
 H         0.738908         2.015003         2.100417
 H         3.342936        -0.690857         2.453392
 H         1.670304        -1.204800         2.471602
 H         2.484212        -2.265180         0.039184
