19
Iteration:   349
 C        -0.076181        -0.057840        -0.135522
 C         1.386737        -0.056205         0.051040
 O         2.143748         0.326677        -1.182691
 C         3.362393        -0.279513        -0.402998
 C         3.467996         0.992022         0.415046
 C         2.186000         0.697036         1.229813
 O         1.389573         1.665266         1.788760
 C         2.431937        -0.650495         1.969925
 C         2.317895        -1.189804         0.488447
 H        -0.551995        -0.211469         0.873720
 H        -0.251654         1.007722        -0.437400
 H        -0.372312        -0.883565        -0.805675
 H         4.084433        -0.644753        -1.160340
 H         4.332360         1.091821         1.128814
 H         3.520889         1.856582        -0.287679
 H         1.626531         1.876797         2.730488
 H         3.494553        -0.683778         2.391220
 H         1.621164        -0.833823         2.695067
 H         2.044082        -2.131540         0.253897
