19
Iteration:   450charge 0 multiplicity 1
 C        -0.139555        -0.290704        -0.231582
 C         1.398086         0.024997        -0.008662
 O         2.075729         0.322652        -1.247091
 C         3.240748        -0.269047        -0.499229
 C         3.632295         0.906612         0.586284
 C         2.187445         0.751378         1.244394
 O         1.527561         1.798234         2.019233
 C         2.387881        -0.549823         1.886614
 C         2.304218        -1.142097         0.548506
 H        -0.454479        -0.763068         0.697156
 H        -0.616482         0.669790        -0.498373
 H        -0.203078        -1.001151        -1.073931
 H         3.983523        -0.611608        -1.269355
 H         4.322076         0.355961         1.252870
 H         4.080469         1.822242         0.201737
 H         1.057555         2.318659         1.387013
 H         3.233160        -0.800350         2.565015
 H         1.493131        -1.065999         2.319444
 H         2.323932        -2.242627         0.229995
