19
Iteration:  4146charge 0 multiplicity 1
 C        -0.096908        -0.338959         0.020771
 C         1.373461        -0.139395         0.164132
 O         2.000186         0.105041        -1.241507
 C         3.289913        -0.213295        -0.498016
 C         3.440347         1.078841         0.363755
 C         2.121485         0.829130         1.179218
 O         1.454885         1.831958         1.794842
 C         2.541307        -0.420071         1.926744
 C         2.475532        -1.192265         0.520831
 H        -0.375460        -0.911415         0.879151
 H        -0.718985         0.545045        -0.160622
 H        -0.372477        -1.040905        -0.774057
 H         4.085409        -0.551284        -1.210451
 H         4.231799         1.065477         1.132859
 H         3.517234         2.015765        -0.275867
 H         2.107115         2.212371         2.384539
 H         3.466669        -0.619596         2.465039
 H         1.777220        -0.829751         2.613268
 H         2.257040        -2.342496         0.430272
