19
Iteration:  3770
 C        -0.061115        -0.334753         0.255406
 C         1.411921        -0.070124         0.054059
 O         2.061252         0.061249        -1.289853
 C         3.263077        -0.137602        -0.477432
 C         3.418912         1.075736         0.339043
 C         2.172964         0.798264         1.130511
 O         1.513722         1.846875         1.761148
 C         2.380163        -0.503357         1.947175
 C         2.474941        -1.167729         0.503792
 H        -0.312154        -0.687004         1.275547
 H        -0.450770         0.657240        -0.071877
 H        -0.386191        -1.158023        -0.442612
 H         4.117135        -0.440502        -1.148345
 H         4.415010         1.065454         0.854837
 H         3.421267         1.999308        -0.337986
 H         0.865943         1.362065         2.300108
 H         3.221508        -0.478274         2.644023
 H         1.531815        -0.802339         2.539810
 H         2.652965        -2.189017         0.277780
