19
Iteration:  1075charge 0 multiplicity 1
 C        -0.007975         0.030010         0.013211
 C         1.481845        -0.064487         0.077805
 O         2.061673         0.168720        -1.158731
 C         3.308350        -0.260456        -0.529394
 C         3.571175         1.020918         0.430541
 C         2.193632         0.674025         1.261006
 O         1.346371         1.815101         1.704732
 C         2.384589        -0.690438         1.970361
 C         2.445169        -1.170192         0.412477
 H        -0.591926        -0.057774         0.980672
 H        -0.603594         0.959114        -0.138767
 H        -0.452417        -0.812262        -0.639891
 H         4.050704        -0.749822        -1.044676
 H         4.449173         0.991538         1.069129
 H         3.434148         2.042208         0.058798
 H         0.897992         1.604774         2.563347
 H         2.993446        -0.906529         2.942248
 H         1.487039        -1.293419         2.175311
 H         2.297156        -2.208006         0.128050
