19
Iteration:  3294
 C        -0.162462        -0.340823         0.010246
 C         1.330996        -0.161243         0.072239
 O         2.029354         0.094580        -1.327559
 C         3.223336        -0.120321        -0.562700
 C         3.422731         0.998763         0.429338
 C         2.095455         0.773223         1.244770
 O         1.552554         1.879595         1.834302
 C         2.589215        -0.494688         1.947548
 C         2.479422        -1.166860         0.609065
 H        -0.579110        -0.879279         0.953886
 H        -0.753214         0.574387        -0.247248
 H        -0.436379        -1.052580        -0.750433
 H         4.146946        -0.390010        -1.139533
 H         4.255091         0.887449         1.129036
 H         3.343797         1.989724        -0.061467
 H         2.082442         2.709613         1.804256
 H         3.593849        -0.301773         2.311101
 H         1.901327        -0.963133         2.722637
 H         2.390849        -2.239797         0.630751
