19
Iteration:  3727charge 0 multiplicity 1
 C        -0.202900        -0.120969         0.086745
 C         1.385665        -0.242974         0.139880
 O         2.009745         0.041362        -1.187926
 C         3.239500        -0.134167        -0.461231
 C         3.415306         1.121319         0.352569
 C         2.109888         0.710646         1.170121
 O         1.479405         1.844590         1.715538
 C         2.682299        -0.557792         1.903419
 C         2.561920        -1.175134         0.558616
 H        -0.808870        -0.462829         0.974316
 H        -0.653571         0.852095        -0.344580
 H        -0.470659        -0.924274        -0.663943
 H         4.125297        -0.465689        -1.097378
 H         4.304937         1.091207         1.041617
 H         3.642041         2.107606        -0.189236
 H         0.577121         1.874288         2.147038
 H         3.699210        -0.578457         2.282008
 H         1.943876        -0.919451         2.612732
 H         2.520644        -2.184586         0.263779
