19
Iteration:  3765charge 0 multiplicity 1
 C        -0.002429        -0.281373         0.255414
 C         1.395217        -0.110094         0.017246
 O         2.064262         0.075336        -1.296083
 C         3.270813        -0.154279        -0.490597
 C         3.414856         1.120550         0.315671
 C         2.126852         0.770202         1.174904
 O         1.510538         1.837691         1.737956
 C         2.404756        -0.530225         1.964529
 C         2.490351        -1.158461         0.520202
 H        -0.275298        -0.606854         1.253480
 H        -0.441058         0.686165         0.021836
 H        -0.284572        -1.115278        -0.399480
 H         4.005891        -0.458753        -1.220880
 H         4.300565         1.031028         0.925682
 H         3.261956         1.968488        -0.311365
 H         0.768970         1.484836         2.308404
 H         3.264204        -0.593656         2.694846
 H         1.536884        -0.775999         2.647755
 H         2.470430        -2.319857         0.380627
