19
Iteration:  3413charge 0 multiplicity 1
 C        -0.009015        -0.167191         0.029064
 C         1.448612        -0.130521         0.134503
 O         1.974537         0.056052        -1.211756
 C         3.301068        -0.199838        -0.514698
 C         3.402577         1.055345         0.285504
 C         2.217363         0.821386         1.069892
 O         1.434217         1.722876         1.980442
 C         2.497220        -0.450781         1.932397
 C         2.463823        -1.204021         0.532897
 H        -0.491434        -0.409750         1.031242
 H        -0.285256         0.822754        -0.425974
 H        -0.415166        -0.955772        -0.540823
 H         4.058181        -0.726024        -1.175288
 H         4.180279         1.016209         1.053100
 H         3.355388         2.013809        -0.302939
 H         0.818027         2.134710         1.350070
 H         3.400198        -0.543697         2.526392
 H         1.636847        -0.478550         2.695125
 H         2.350386        -2.255968         0.331957
