19
Iteration:  3076
 C        -0.172007        -0.104314         0.157085
 C         1.373778        -0.196016         0.187175
 O         2.049436         0.025304        -1.171574
 C         3.261443        -0.117058        -0.488489
 C         3.439146         1.023074         0.420723
 C         2.053120         0.744954         1.148640
 O         1.396952         1.818390         1.664785
 C         2.569373        -0.589654         1.933719
 C         2.597975        -1.144979         0.433633
 H        -0.335403        -0.522866         1.171043
 H        -0.395774         0.948974         0.101712
 H        -0.647958        -0.757366        -0.577310
 H         4.086480        -0.400586        -1.120887
 H         4.293162         0.991066         1.059998
 H         3.346912         1.938227        -0.162798
 H         1.947716         2.612268         1.368980
 H         3.507809        -0.426240         2.424516
 H         2.038330        -1.260638         2.618399
 H         2.537977        -2.241813         0.183910
