19
Iteration:  2404
 C        -0.076792        -0.038256         0.077021
 C         1.417670        -0.085821         0.054063
 O         2.065498         0.109590        -1.268741
 C         3.260532        -0.212404        -0.539213
 C         3.438752         0.996160         0.469551
 C         2.126086         0.707703         1.134450
 O         1.401729         1.807873         1.868694
 C         2.598912        -0.530906         1.897788
 C         2.449327        -1.248488         0.487635
 H        -0.526600        -0.001557         1.091531
 H        -0.427317         0.918140        -0.227393
 H        -0.578071        -0.818951        -0.571102
 H         4.085195        -0.266499        -1.337184
 H         4.360362         0.842556         1.132981
 H         3.637852         1.888486        -0.166623
 H         0.869497         1.303305         2.559330
 H         3.530058        -0.457479         2.461522
 H         1.901615        -1.032597         2.644653
 H         2.103643        -2.331457         0.302043
