19
Iteration:  4890charge 0 multiplicity 1
 C        -0.116065        -0.332275         0.028390
 C         1.381540        -0.151052         0.047033
 O         1.976581         0.031450        -1.218245
 C         3.221500        -0.240782        -0.489220
 C         3.378788         1.138682         0.367655
 C         2.186480         0.783982         1.140152
 O         1.524715         1.826985         1.957572
 C         2.642813        -0.464028         1.937478
 C         2.464714        -1.153324         0.524907
 H        -0.661706        -0.138702         0.992253
 H        -0.513653         0.552155        -0.529486
 H        -0.388998        -1.284891        -0.392692
 H         4.018733        -0.394096        -1.247902
 H         4.280096         1.463131         0.924880
 H         3.245027         2.037610        -0.299910
 H         1.076406         2.326799         1.277541
 H         3.640184        -0.373133         2.271281
 H         1.955442        -0.819229         2.679681
 H         2.415925        -2.307870         0.298482
