19
Iteration:   476charge 0 multiplicity 1
 C        -0.129466        -0.242088        -0.156712
 C         1.378521        -0.076365         0.022028
 O         2.166757         0.254620        -1.195929
 C         3.279200        -0.199255        -0.427263
 C         3.439198         0.980714         0.567860
 C         2.071333         0.672820         1.240525
 O         1.684119         1.826918         1.972512
 C         2.251513        -0.608108         1.903856
 C         2.395990        -1.162623         0.379777
 H        -0.554560        -0.660517         0.733676
 H        -0.488819         0.734567        -0.297288
 H        -0.350434        -0.796033        -1.034900
 H         4.123070        -0.436772        -1.043305
 H         4.266282         0.896379         1.250758
 H         3.448840         1.847618        -0.084087
 H         1.749213         2.557456         1.368681
 H         3.123960        -0.787996         2.476298
 H         1.429123        -1.090876         2.380868
 H         2.413793        -2.168304        -0.054272
