19
Iteration:  1248
 C        -0.037418        -0.055185         0.016628
 C         1.418149        -0.164168        -0.051496
 O         2.062277         0.196961        -1.248032
 C         3.295306        -0.195689        -0.483129
 C         3.542876         1.026710         0.491526
 C         2.100798         0.743873         1.160340
 O         1.395280         1.725352         1.933628
 C         2.405504        -0.586004         1.935968
 C         2.489402        -1.234109         0.492939
 H        -0.386281        -0.367526         1.027150
 H        -0.241906         0.983437        -0.189332
 H        -0.642987        -0.588563        -0.739666
 H         3.942593        -0.783524        -1.118394
 H         4.228957         0.698180         1.293142
 H         3.618141         2.007753        -0.026797
 H         1.116557         2.441973         1.292785
 H         3.295654        -0.628321         2.531317
 H         1.557864        -0.906023         2.559345
 H         2.619587        -2.264115         0.121435
