19
Iteration:  4127
 C        -0.094123        -0.331478         0.054143
 C         1.383005        -0.106662         0.055249
 O         2.030966         0.045320        -1.189865
 C         3.242211        -0.182927        -0.452740
 C         3.413717         1.106337         0.306102
 C         2.210441         0.808987         1.222794
 O         1.439216         1.825242         1.823468
 C         2.524868        -0.604604         1.958975
 C         2.480106        -1.089137         0.538541
 H        -0.550326        -0.679283         0.968572
 H        -0.516238         0.561378        -0.339416
 H        -0.323894        -1.031900        -0.893747
 H         4.020854        -0.632959        -1.105802
 H         4.374036         1.271591         0.796288
 H         3.022667         1.998758        -0.311712
 H         2.097583         2.543397         1.915438
 H         3.491726        -0.460806         2.472068
 H         1.551821        -0.761022         2.474426
 H         2.387671        -2.170032         0.166843
