19
Iteration:  1301
 C        -0.128275        -0.363944        -0.249806
 C         1.413733        -0.153376        -0.017885
 O         2.060717         0.203385        -1.191791
 C         3.267989        -0.122704        -0.441857
 C         3.381126         0.999782         0.414309
 C         2.115112         0.793747         1.256120
 O         1.656787         1.871837         2.008128
 C         2.373554        -0.578317         1.905480
 C         2.380172        -1.157470         0.530744
 H        -0.497778        -0.694888         0.692402
 H        -0.379971         0.589535        -0.578387
 H        -0.343464        -1.008247        -1.064747
 H         4.138852        -0.475168        -1.102602
 H         4.378966         0.919311         0.880014
 H         3.321746         2.018585        -0.087819
 H         2.400451         2.253660         2.546869
 H         3.163103        -0.758797         2.565468
 H         1.507622        -1.038079         2.401951
 H         2.192399        -2.237195         0.396719
