19
Iteration:  2109
 C        -0.092515        -0.284173        -0.028192
 C         1.374724        -0.094084         0.059216
 O         2.071364         0.287362        -1.205127
 C         3.300409        -0.160372        -0.565939
 C         3.473475         0.923742         0.505269
 C         2.101937         0.718908         1.259770
 O         1.562581         1.874532         1.893365
 C         2.465968        -0.605797         1.888904
 C         2.405753        -1.144565         0.449144
 H        -0.365022        -0.553759         0.971299
 H        -0.587217         0.568504        -0.398211
 H        -0.303072        -1.041141        -0.819071
 H         4.121238        -0.400459        -1.266003
 H         4.230567         0.473948         1.104346
 H         3.699718         1.882370         0.132423
 H         0.645066         2.089117         1.865730
 H         3.289186        -0.718873         2.621090
 H         1.527818        -1.115283         2.228671
 H         2.252912        -2.228168         0.204494
