19
Iteration:  2650charge 0 multiplicity 1
 C        -0.118469        -0.457809        -0.097587
 C         1.346494        -0.115800         0.039775
 O         2.017832         0.153055        -1.167294
 C         3.224156        -0.296487        -0.481701
 C         3.350967         1.079150         0.399973
 C         2.174496         0.825746         1.246204
 O         1.745222         1.997923         1.881034
 C         2.506669        -0.491737         1.898906
 C         2.365925        -1.149018         0.510725
 H        -0.423059        -1.251772         0.535933
 H        -0.870141         0.408676         0.003652
 H        -0.350126        -0.959284        -1.071131
 H         3.957954        -0.625712        -1.238346
 H         4.255849         1.134041         1.041734
 H         3.349961         1.958772        -0.265867
 H         1.305606         1.657265         2.698865
 H         3.460785        -0.615586         2.505546
 H         1.518214        -0.791081         2.422637
 H         2.395847        -2.266995         0.225101
