19
Iteration:  4588charge 0 multiplicity 1
 C        -0.086637        -0.292022         0.126300
 C         1.395791        -0.227436         0.000055
 O         2.024397         0.045155        -1.227960
 C         3.229942        -0.205211        -0.479088
 C         3.357400         1.083729         0.411229
 C         2.102685         0.798823         1.137037
 O         1.464333         1.887293         1.795512
 C         2.587984        -0.465590         1.902055
 C         2.509686        -1.128478         0.508273
 H        -0.608036        -0.927059         0.949534
 H        -0.485755         0.698759         0.148657
 H        -0.423422        -0.754529        -0.789619
 H         4.025874        -0.580599        -1.165063
 H         4.382477         1.152913         0.909987
 H         3.358394         2.018365        -0.130064
 H         1.779058         1.948331         2.680891
 H         3.484014        -0.359961         2.464395
 H         1.946448        -0.893732         2.588060
 H         2.557638        -2.208378         0.454582
