19
Iteration:  3189charge 0 multiplicity 1
 C        -0.055101        -0.353291         0.068648
 C         1.415219        -0.080371         0.067229
 O         1.971015         0.156391        -1.218222
 C         3.267023        -0.169671        -0.505856
 C         3.369617         0.991534         0.337512
 C         2.104549         0.723934         1.210607
 O         1.578388         1.813318         1.835594
 C         2.458469        -0.530480         1.961905
 C         2.546611        -1.098150         0.538751
 H        -0.687301        -0.233233         0.998129
 H        -0.553447         0.483419        -0.473202
 H        -0.393198        -1.257777        -0.477008
 H         4.158172        -0.421028        -1.149318
 H         4.351801         1.127069         0.865112
 H         3.196400         1.932141        -0.195253
 H         1.455149         2.579266         1.208964
 H         3.309288        -0.557036         2.632088
 H         1.634871        -1.010319         2.558924
 H         2.468225        -2.182852         0.483006
