19
Iteration:  2340
 C        -0.145136        -0.242230        -0.143118
 C         1.346704        -0.163176        -0.067633
 O         2.020362         0.131899        -1.268749
 C         3.194173        -0.146482        -0.439062
 C         3.407907         1.004071         0.501849
 C         2.111904         0.784971         1.283955
 O         1.712841         1.891840         1.959501
 C         2.496053        -0.584549         1.930855
 C         2.440935        -1.149585         0.442939
 H        -0.514686        -0.152350         0.900241
 H        -0.394922         0.613840        -0.706241
 H        -0.504495        -1.124415        -0.716684
 H         4.068608        -0.534826        -1.059726
 H         4.280246         0.810130         1.045937
 H         3.333177         1.921413        -0.064537
 H         1.055060         1.699866         2.633077
 H         3.387327        -0.471596         2.574475
 H         1.867947        -1.195795         2.583457
 H         2.469029        -2.196806         0.110610
