19
Iteration:  4512charge 0 multiplicity 1
 C        -0.133183        -0.368531         0.096936
 C         1.357885        -0.103883         0.126730
 O         2.059661         0.086076        -1.360114
 C         3.259053        -0.205775        -0.513168
 C         3.351552         0.997379         0.342434
 C         2.126880         0.810441         1.242997
 O         1.542501         1.892087         1.862974
 C         2.587120        -0.465877         1.939753
 C         2.518290        -1.100239         0.508148
 H        -0.380974        -0.447666         1.256024
 H        -0.817668         0.414963        -0.133921
 H        -0.312253        -1.307083        -0.366638
 H         4.153912        -0.602539        -1.004220
 H         4.309638         1.117057         1.035784
 H         3.340648         1.942877        -0.168311
 H         0.577165         1.923153         1.625623
 H         3.499351        -0.524356         2.520979
 H         1.740616        -0.996175         2.378593
 H         2.454277        -2.148189         0.350264
