19
Iteration:  2983
 C        -0.207023        -0.490040        -0.183124
 C         1.352714        -0.231911         0.077172
 O         1.951565         0.057810        -1.331430
 C         3.247878        -0.219535        -0.485051
 C         3.328887         1.054761         0.354290
 C         2.118036         0.845542         1.291179
 O         1.799911         1.924025         2.027117
 C         2.511146        -0.470238         1.977728
 C         2.454223        -1.011228         0.568522
 H        -0.803360        -0.547691         0.775141
 H        -0.425308         0.391729        -0.798388
 H        -0.359348        -1.384375        -0.762750
 H         4.218217        -0.427053        -0.970383
 H         4.255671         1.135216         1.030445
 H         3.353547         1.962534        -0.316914
 H         1.584224         2.715407         1.577214
 H         3.429807        -0.620986         2.634904
 H         1.599520        -0.827762         2.552979
 H         2.460505        -2.056546         0.416483
