19
Iteration:  2045
 C        -0.093085         0.049366        -0.047978
 C         1.390570        -0.180299        -0.081575
 O         2.081670         0.061969        -1.322793
 C         3.274693        -0.192787        -0.420872
 C         3.469075         1.042652         0.456254
 C         2.043809         0.728639         1.283505
 O         1.424175         1.776196         1.968285
 C         2.513245        -0.554200         1.897444
 C         2.482352        -1.197423         0.418818
 H        -0.496002        -0.819921         0.594029
 H        -0.375265         1.030525         0.231791
 H        -0.485713        -0.248196        -1.093095
 H         4.132265        -0.581801        -0.981352
 H         4.412301         0.844083         1.033037
 H         3.459866         2.006466        -0.023558
 H         1.402404         1.507432         2.938436
 H         3.483483        -0.455565         2.427210
 H         1.751510        -0.953059         2.559253
 H         2.653099        -2.313748         0.383183
