19
Iteration:  2974
 C        -0.135963        -0.497674        -0.220143
 C         1.329017        -0.136373         0.080693
 O         1.924717         0.076528        -1.221331
 C         3.186338        -0.193343        -0.447438
 C         3.390437         1.095502         0.340354
 C         2.176769         0.861202         1.227152
 O         1.738860         1.937592         2.043008
 C         2.500793        -0.490966         1.936645
 C         2.480857        -1.171688         0.581239
 H        -0.819280        -0.476808         0.625731
 H        -0.527938         0.368751        -0.861703
 H        -0.256636        -1.436028        -0.797591
 H         4.050480        -0.646607        -1.046186
 H         4.402864         1.219407         0.783791
 H         3.047510         1.872287        -0.367028
 H         1.858227         2.665899         1.450078
 H         3.399648        -0.383777         2.657001
 H         1.682656        -0.941024         2.518710
 H         2.412813        -2.286667         0.394039
