19
Iteration:  2905
 C        -0.063218        -0.164337         0.350731
 C         1.434770        -0.185795         0.086660
 O         2.062387         0.054310        -1.230160
 C         3.308499        -0.143396        -0.486716
 C         3.492449         1.116455         0.344152
 C         2.091065         0.726916         1.125440
 O         1.351551         1.830351         1.650117
 C         2.447002        -0.615146         1.869432
 C         2.543053        -1.176936         0.475942
 H        -0.390331        -0.260878         1.468326
 H        -0.231208         0.839139        -0.000706
 H        -0.627924        -0.788367        -0.335900
 H         4.096507        -0.289399        -1.178255
 H         4.350519         0.966455         1.075697
 H         3.334545         2.071994        -0.218425
 H         1.801162         2.082211         2.471075
 H         3.238840        -0.590425         2.663249
 H         1.480256        -0.975276         2.418068
 H         2.283428        -2.130662         0.187105
