19
Iteration:   133charge 0 multiplicity 1
 C        -0.058403        -0.226643        -0.243100
 C         1.432550        -0.053970         0.116142
 O         2.124708         0.269035        -1.127769
 C         3.269057        -0.164699        -0.525425
 C         3.412208         0.974135         0.425258
 C         2.102149         0.677221         1.243918
 O         1.685053         1.859418         1.808128
 C         2.312880        -0.613100         2.029724
 C         2.357835        -1.202009         0.541966
 H        -0.691543        -0.733355         0.490039
 H        -0.610897         0.611493        -0.611112
 H        -0.028521        -0.914426        -1.070810
 H         4.019126        -0.460723        -1.295876
 H         4.247078         1.052557         1.072524
 H         3.400239         1.920573        -0.106712
 H         1.002336         1.621664         2.415496
 H         3.132905        -0.741021         2.679700
 H         1.440085        -0.947186         2.528050
 H         2.210388        -2.366659         0.426493
