19
Iteration:  3195charge 0 multiplicity 1
 C        -0.055680        -0.318647         0.059782
 C         1.398784        -0.138865         0.047480
 O         1.966715         0.143745        -1.219535
 C         3.304887        -0.172811        -0.547543
 C         3.402641         1.028970         0.356770
 C         2.142178         0.733299         1.199272
 O         1.533527         1.827085         1.870816
 C         2.462858        -0.502426         1.957450
 C         2.488870        -1.119346         0.556660
 H        -0.370751        -0.323862         1.125645
 H        -0.532980         0.487964        -0.489104
 H        -0.415397        -1.244787        -0.367812
 H         4.153140        -0.453855        -1.145232
 H         4.308781         0.928018         0.934979
 H         3.281951         1.948062        -0.238486
 H         1.328531         2.502623         1.230602
 H         3.397396        -0.554603         2.544697
 H         1.638650        -0.965671         2.501608
 H         2.476377        -2.199842         0.399295
