19
Iteration:  3281charge 0 multiplicity 1
 C        -0.261483        -0.285919        -0.032363
 C         1.352916        -0.130881         0.128908
 O         2.001773         0.003529        -1.187399
 C         3.249298        -0.159855        -0.530442
 C         3.385684         1.089576         0.420946
 C         2.120176         0.761820         1.163754
 O         1.518800         1.881323         1.828495
 C         2.575986        -0.563670         1.986409
 C         2.625828        -1.145650         0.513295
 H        -0.644991        -0.576325         0.945420
 H        -0.584424         0.796502        -0.132891
 H        -0.505218        -0.938767        -0.877317
 H         3.998544        -0.393463        -1.260582
 H         4.330993         1.019044         0.950876
 H         3.487910         2.075614        -0.091033
 H         2.059879         2.589597         1.473791
 H         3.493481        -0.482317         2.658700
 H         1.835155        -1.086125         2.593128
 H         2.617174        -2.173267         0.151868
