19
Iteration:   493
 C        -0.141469        -0.122864        -0.103317
 C         1.418389        -0.052125        -0.027587
 O         2.158782         0.182127        -1.249029
 C         3.347782        -0.177472        -0.391032
 C         3.397013         1.061950         0.479452
 C         2.125805         0.734532         1.269446
 O         1.597027         1.852643         1.958483
 C         2.302338        -0.855632         1.866170
 C         2.415979        -1.173354         0.424870
 H        -0.479895        -0.662204         0.834241
 H        -0.657418         0.909467        -0.289012
 H        -0.408029        -0.870895        -0.923864
 H         4.257785        -0.642094        -0.842422
 H         4.256547         1.286538         1.157337
 H         3.176871         1.977671        -0.127889
 H         2.029532         2.684864         1.807010
 H         2.967858        -1.127031         2.764052
 H         1.226214        -1.034350         2.222623
 H         2.160567        -2.279154         0.303768
