19
Iteration:   243
 C        -0.085581        -0.113172        -0.198608
 C         1.376521         0.031455         0.026945
 O         2.083125         0.146033        -1.261488
 C         3.223016        -0.191368        -0.429831
 C         3.418249         0.889967         0.544825
 C         2.138835         0.737357         1.245758
 O         1.531301         1.801756         1.919388
 C         2.560573        -0.608708         1.940208
 C         2.413506        -1.103757         0.502272
 H        -0.568996        -0.412747         0.730076
 H        -0.560109         0.790030        -0.508165
 H        -0.211048        -0.790795        -1.016841
 H         4.003377        -0.673779        -1.071518
 H         4.302422         0.527736         1.035911
 H         3.533248         1.874111         0.112139
 H         0.540632         1.761701         1.803902
 H         3.521977        -0.702675         2.341161
 H         1.907426        -1.181652         2.572729
 H         2.168941        -2.270302         0.371503
