19
Iteration:  1477charge 0 multiplicity 1
 C        -0.123382        -0.356538        -0.113690
 C         1.390533        -0.042730         0.057709
 O         2.056216         0.238348        -1.257603
 C         3.292871        -0.222349        -0.575521
 C         3.460688         0.944502         0.557629
 C         2.072976         0.746651         1.266325
 O         1.549645         1.866611         1.985017
 C         2.357665        -0.575766         1.885136
 C         2.486213        -1.098502         0.434257
 H        -0.568181        -0.718730         0.814231
 H        -0.549485         0.629532        -0.388146
 H        -0.178641        -1.087439        -0.987192
 H         4.101105        -0.600668        -1.299939
 H         4.240884         0.658924         1.319084
 H         3.702669         1.961044         0.229448
 H         2.280851         2.551031         2.021609
 H         3.246462        -0.712788         2.509610
 H         1.493635        -1.143846         2.344903
 H         2.286190        -2.172834         0.130510
