19
Iteration:  2455
 C        -0.041737        -0.406504         0.046996
 C         1.399189        -0.117414         0.106526
 O         2.019937         0.216514        -1.170843
 C         3.291345        -0.105813        -0.550368
 C         3.411763         1.024585         0.397681
 C         2.144145         0.705943         1.240541
 O         1.761979         1.918234         1.819153
 C         2.285297        -0.573933         1.929424
 C         2.377824        -1.137003         0.429310
 H        -0.359450        -1.026031         0.839898
 H        -0.771315         0.453223         0.230442
 H        -0.287195        -0.821639        -0.950210
 H         3.948019        -0.573109        -1.233830
 H         4.292686         0.900630         1.076650
 H         3.341309         1.922952        -0.214129
 H         0.822425         1.940089         2.026071
 H         3.135230        -0.683637         2.599572
 H         1.450462        -1.004098         2.493276
 H         2.519732        -2.152590         0.030263
