19
Iteration:  4965charge 0 multiplicity 1
 C        -0.176352        -0.343225         0.215582
 C         1.378272        -0.228753         0.113728
 O         1.992567         0.140282        -1.177051
 C         3.325270        -0.135586        -0.489797
 C         3.416208         1.131358         0.356648
 C         2.131161         0.763882         1.126958
 O         1.477166         1.884049         1.634340
 C         2.571966        -0.546171         1.932755
 C         2.545416        -1.170028         0.475776
 H        -0.391038        -0.694570         1.273148
 H        -0.832559         0.578756         0.075543
 H        -0.559994        -1.138726        -0.453350
 H         3.991652        -0.599964        -1.149164
 H         4.335256         1.314308         0.952333
 H         3.434364         2.108339        -0.246782
 H         1.568718         1.892695         2.643137
 H         3.463011        -0.529523         2.513609
 H         1.731705        -0.886534         2.519144
 H         2.443994        -2.308853         0.235044
