19
Iteration:  2164charge 0 multiplicity 1
 C        -0.101207        -0.263434        -0.048797
 C         1.424566        -0.056080         0.008629
 O         2.048498         0.235006        -1.248794
 C         3.272641        -0.221320        -0.494871
 C         3.458435         1.066431         0.484371
 C         2.116148         0.730530         1.221755
 O         1.650335         1.844785         1.952377
 C         2.303838        -0.703255         1.901106
 C         2.480368        -1.139592         0.459463
 H        -0.533174        -0.057986         0.917379
 H        -0.322483         0.466991        -0.804116
 H        -0.266437        -1.341122        -0.315366
 H         3.947250        -0.448328        -1.333558
 H         4.357078         1.238629         1.042727
 H         3.344619         1.908510        -0.146467
 H         0.975929         1.713698         2.613306
 H         3.182993        -0.758387         2.588203
 H         1.317230        -1.046452         2.310986
 H         2.371444        -2.126484        -0.036785
