19
Iteration:  3279charge 0 multiplicity 1
 C        -0.262806        -0.266464        -0.019922
 C         1.350461        -0.144708         0.117611
 O         1.986616        -0.001588        -1.162292
 C         3.258950        -0.168315        -0.514460
 C         3.385301         1.099322         0.401133
 C         2.126587         0.749400         1.166824
 O         1.511059         1.881701         1.829339
 C         2.574820        -0.563683         1.991962
 C         2.630890        -1.134436         0.485573
 H        -0.603603        -0.590727         0.904764
 H        -0.501034         0.806066        -0.167197
 H        -0.449152        -0.944433        -0.898105
 H         4.021141        -0.412616        -1.213150
 H         4.320612         1.058435         0.978124
 H         3.491930         2.071420        -0.106661
 H         2.045050         2.632219         1.440103
 H         3.492698        -0.540013         2.676700
 H         1.790581        -1.053855         2.522848
 H         2.655507        -2.188644         0.122201
