19
Iteration:   826
 C        -0.077720        -0.316885        -0.077654
 C         1.351301         0.062837        -0.071739
 O         2.115498         0.117661        -1.264721
 C         3.238531        -0.236282        -0.476843
 C         3.484976         0.952637         0.514206
 C         2.161828         0.858300         1.202001
 O         1.589285         1.907979         2.033780
 C         2.372394        -0.593812         1.862710
 C         2.372430        -1.142457         0.454237
 H        -0.379138        -0.853970         0.793899
 H        -0.809429         0.437472        -0.220248
 H        -0.225912        -1.140509        -0.789446
 H         4.131206        -0.460070        -1.142425
 H         4.343421         0.801040         1.188210
 H         3.809641         1.802735        -0.113157
 H         1.129981         1.513122         2.848432
 H         3.257230        -0.707285         2.545097
 H         1.471946        -0.978997         2.259814
 H         2.159350        -2.043237        -0.086807
