19
Iteration:  3751
 C        -0.036726        -0.200686         0.163429
 C         1.489909        -0.196336         0.046709
 O         2.016335         0.096629        -1.223464
 C         3.309646        -0.230916        -0.544723
 C         3.329098         1.101727         0.379638
 C         2.119287         0.728554         1.175359
 O         1.463790         1.899898         1.716658
 C         2.537332        -0.571424         1.945515
 C         2.496301        -1.158558         0.543903
 H        -0.081295        -0.458320         1.287402
 H        -0.531402         0.857511         0.006299
 H        -0.657861        -0.878211        -0.302329
 H         4.167901        -0.614218        -1.049133
 H         4.228047         1.487169         0.947886
 H         3.144673         1.984317        -0.221327
 H         0.661589         1.724650         2.179612
 H         3.437512        -0.603374         2.506519
 H         1.664509        -1.149591         2.408334
 H         2.356048        -2.183188         0.289503
