19
Iteration:   968
 C        -0.206550        -0.415285        -0.282245
 C         1.308454        -0.105751        -0.070900
 O         2.113765         0.195807        -1.274244
 C         3.231127        -0.167669        -0.384440
 C         3.427830         1.009414         0.593874
 C         2.057027         0.754022         1.357261
 O         1.818449         2.014609         1.912729
 C         2.423680        -0.611401         1.928365
 C         2.361019        -1.149523         0.413677
 H        -0.608366        -0.775922         0.698184
 H        -0.724138         0.550500        -0.549775
 H        -0.590468        -1.288374        -0.969051
 H         4.134275        -0.637209        -0.957812
 H         4.173148         0.886528         1.431474
 H         3.726191         1.940151         0.079568
 H         1.484219         1.976871         2.870006
 H         3.496637        -0.705879         2.365688
 H         1.616634        -1.081777         2.475168
 H         2.158645        -2.203941         0.140955
