19
Iteration:  4220charge 0 multiplicity 1
 C        -0.145409        -0.285627         0.160507
 C         1.375213        -0.168657         0.048187
 O         2.044027         0.105909        -1.267678
 C         3.340444        -0.235681        -0.531914
 C         3.384689         1.064537         0.372613
 C         2.115354         0.772567         1.169326
 O         1.501983         1.921835         1.836894
 C         2.563811        -0.520205         1.934646
 C         2.555693        -1.156517         0.556234
 H        -0.529226        -0.625529         1.155486
 H        -0.586146         0.624585        -0.372251
 H        -0.627363        -0.899785        -0.516128
 H         4.161479        -0.616876        -1.185886
 H         4.294119         1.027581         0.940746
 H         3.135081         1.885742        -0.233659
 H         0.519768         1.766593         1.775810
 H         3.508732        -0.438906         2.502615
 H         1.630137        -0.813094         2.449544
 H         2.493324        -2.215885         0.332501
