19
Iteration:  2852
 C        -0.148247        -0.257148         0.019943
 C         1.317782        -0.143493         0.124656
 O         1.953701         0.046491        -1.208486
 C         3.260477        -0.270893        -0.461954
 C         3.504103         1.033885         0.409258
 C         2.175851         0.849785         1.169429
 O         1.408672         1.843831         1.825239
 C         2.631049        -0.470908         1.836217
 C         2.501652        -1.144956         0.471173
 H        -0.614351        -0.815643         0.932485
 H        -0.648846         0.692348        -0.038440
 H        -0.328528        -0.832061        -0.880225
 H         4.124004        -0.632749        -1.004514
 H         4.267853         0.951230         1.201326
 H         3.384762         1.994009        -0.101828
 H         1.950765         2.394342         2.413395
 H         3.644303        -0.507351         2.327588
 H         1.897045        -0.731860         2.665496
 H         2.607814        -2.136226         0.257635
