19
Iteration:  1743charge 0 multiplicity 1
 C        -0.161947         0.001953        -0.120699
 C         1.384308        -0.123377        -0.132841
 O         2.100256         0.142274        -1.265800
 C         3.349268        -0.276987        -0.428926
 C         3.462138         1.148597         0.432805
 C         2.110919         0.723486         1.265761
 O         1.405993         1.667612         1.988877
 C         2.572537        -0.562811         1.937926
 C         2.330968        -1.204716         0.481752
 H        -0.477474        -0.086580         0.961223
 H        -0.361145         1.018337        -0.504562
 H        -0.502584        -0.865686        -0.727369
 H         4.295192        -0.674943        -0.781041
 H         4.209861         1.093177         1.297047
 H         3.504810         2.015675        -0.232083
 H         1.818163         1.963380         2.880648
 H         3.683829        -0.877268         2.058433
 H         1.816475        -0.989954         2.614287
 H         2.331299        -2.252555         0.102789
