19
Iteration:  4202
 C        -0.025452        -0.288920         0.123498
 C         1.395815        -0.163575         0.081036
 O         2.007717         0.057117        -1.200140
 C         3.253515        -0.146289        -0.438027
 C         3.419238         1.121035         0.353443
 C         2.117820         0.815925         1.182534
 O         1.550679         1.877594         1.707363
 C         2.468602        -0.541066         1.961935
 C         2.449813        -1.175278         0.481261
 H        -0.193165        -0.567764         1.142637
 H        -0.518144         0.670520         0.082872
 H        -0.456484        -1.056813        -0.606894
 H         4.069873        -0.447894        -1.134693
 H         4.306225         1.243271         0.992997
 H         3.354735         2.010954        -0.399184
 H         0.812635         1.487512         2.234908
 H         3.408436        -0.571143         2.454667
 H         1.648508        -1.092120         2.403003
 H         2.686747        -2.309648         0.232569
