19
Iteration:   232charge 0 multiplicity 1
 C        -0.115796        -0.051641        -0.172137
 C         1.385482        -0.100850         0.100962
 O         2.041832         0.182946        -1.207607
 C         3.266143        -0.249317        -0.524143
 C         3.518668         0.945893         0.506795
 C         2.144782         0.700493         1.270923
 O         1.508292         1.777217         1.859322
 C         2.516631        -0.611665         1.966756
 C         2.419315        -1.095693         0.493498
 H        -0.842213        -0.356283         0.569945
 H        -0.300776         0.923412        -0.551914
 H        -0.304443        -0.782024        -0.935746
 H         4.202219        -0.354850        -1.109600
 H         4.303997         0.833396         1.244779
 H         3.660890         1.928424         0.054053
 H         0.542770         1.503209         1.868654
 H         3.383430        -0.538579         2.552744
 H         1.653875        -0.945708         2.490714
 H         2.285104        -2.239899         0.153342
