19
Iteration:  1690
 C        -0.114755        -0.129104        -0.021411
 C         1.397801        -0.176783        -0.014328
 O         2.075452         0.205498        -1.193232
 C         3.257353        -0.109891        -0.505109
 C         3.515979         0.975193         0.585205
 C         2.112660         0.699890         1.174409
 O         1.427747         1.828772         1.812581
 C         2.422789        -0.648651         1.878223
 C         2.488532        -1.203441         0.458043
 H        -0.358141        -0.139710         1.074398
 H        -0.302166         0.949896        -0.405176
 H        -0.738372        -0.674006        -0.703221
 H         4.120825        -0.392587        -1.121179
 H         4.503110         0.989066         1.086359
 H         3.513625         2.017499         0.197175
 H         1.656282         1.801478         2.803399
 H         3.363406        -0.849843         2.413775
 H         1.576118        -1.133540         2.383941
 H         2.648842        -2.224304         0.165378
