19
Iteration:  3172charge 0 multiplicity 1
 C        -0.142029        -0.388698        -0.014785
 C         1.314986        -0.163402         0.190969
 O         1.999901         0.157875        -1.173301
 C         3.239199        -0.191652        -0.512694
 C         3.355643         1.155965         0.390198
 C         2.154641         0.735990         1.196250
 O         1.635116         1.944869         1.826175
 C         2.487134        -0.593383         1.928039
 C         2.542700        -1.202390         0.509645
 H        -0.686281        -0.529974         0.864597
 H        -0.572768         0.376386        -0.709002
 H        -0.227487        -1.402828        -0.498650
 H         4.023827        -0.571086        -1.135288
 H         4.188657         1.291086         1.091013
 H         3.120622         1.915605        -0.372890
 H         2.091788         2.710910         1.345177
 H         3.331299        -0.610658         2.731149
 H         1.629009        -1.038533         2.396049
 H         2.518734        -2.231069         0.070595
