19
Iteration:  2264
 C        -0.207474        -0.204221         0.072409
 C         1.353949        -0.092993        -0.016815
 O         2.054619         0.156868        -1.277062
 C         3.269486        -0.133201        -0.368940
 C         3.506087         0.980419         0.565109
 C         2.132337         0.744145         1.211334
 O         1.617927         1.864308         1.824360
 C         2.398771        -0.622532         1.823835
 C         2.515545        -1.128519         0.362965
 H        -0.396405        -0.895633         0.998419
 H        -0.495692         0.766328         0.378911
 H        -0.646360        -0.678474        -0.865771
 H         4.161333        -0.460046        -1.011496
 H         4.319954         0.824026         1.265848
 H         3.661042         1.893840        -0.075889
 H         0.715433         1.619342         2.221483
 H         3.270334        -0.861847         2.549854
 H         1.490544        -1.071152         2.336823
 H         2.545737        -2.203831         0.109918
