19
Iteration:  1660charge 0 multiplicity 1
 C        -0.067375        -0.335396        -0.026696
 C         1.384779         0.045866         0.022932
 O         2.094447         0.320150        -1.184591
 C         3.301137        -0.202921        -0.452180
 C         3.524733         0.945038         0.558123
 C         2.126857         0.690912         1.205437
 O         1.492980         1.900633         1.767020
 C         2.379397        -0.724316         1.926893
 C         2.399234        -1.123539         0.396307
 H        -0.391763        -0.715618         0.953359
 H        -0.776100         0.565530        -0.125217
 H        -0.343660        -1.073073        -0.748610
 H         4.110847        -0.675928        -1.122342
 H         4.395054         1.080558         1.179482
 H         3.273864         1.891787        -0.060794
 H         1.840148         2.040629         2.626816
 H         3.276491        -0.991458         2.466272
 H         1.554074        -1.302632         2.393153
 H         2.084090        -2.106957         0.015719
