19
Iteration:  3226charge 0 multiplicity 1
 C        -0.202490        -0.216007         0.201332
 C         1.368168        -0.060215         0.050040
 O         2.076186        -0.012573        -1.321762
 C         3.362290        -0.249131        -0.420976
 C         3.488265         1.048967         0.380883
 C         2.145606         0.846532         1.120565
 O         1.396020         1.708043         1.943554
 C         2.543100        -0.457226         1.822837
 C         2.461440        -1.052815         0.505965
 H        -0.337657        -0.391911         1.222259
 H        -0.597559         0.779115        -0.163132
 H        -0.538822        -1.055651        -0.467227
 H         4.234322        -0.612631        -0.917898
 H         4.420348         0.970560         0.985408
 H         3.560153         1.873294        -0.376125
 H         0.862033         2.288192         1.317339
 H         3.615144        -0.444997         2.242478
 H         1.795691        -0.933923         2.405952
 H         2.436820        -2.146908         0.348505
