19
Iteration:  4701charge 0 multiplicity 1
 C        -0.026118        -0.329376         0.068083
 C         1.404908        -0.185571         0.075586
 O         2.019852         0.114823        -1.227150
 C         3.296748        -0.234190        -0.492761
 C         3.444482         1.115625         0.257401
 C         2.112254         0.859821         1.148149
 O         1.468313         1.791896         2.004916
 C         2.447323        -0.509608         1.921978
 C         2.486462        -1.145922         0.521975
 H        -0.465056        -0.101188         0.988538
 H        -0.347271         0.563058        -0.545850
 H        -0.339228        -1.371901        -0.210089
 H         3.888220        -0.755305        -1.260601
 H         4.445191         1.210742         0.672953
 H         3.553095         1.953464        -0.509466
 H         1.022829         2.440574         1.429839
 H         3.382768        -0.513402         2.489871
 H         1.610708        -0.786782         2.516154
 H         2.449687        -2.219718         0.459757
