19
Iteration:  3347charge 0 multiplicity 1
 C        -0.089667        -0.383187         0.108453
 C         1.422381        -0.175753         0.002960
 O         2.009989         0.094057        -1.283823
 C         3.246526        -0.157445        -0.534493
 C         3.417798         1.054432         0.377019
 C         2.168196         0.786335         1.225312
 O         1.542458         1.848309         1.831422
 C         2.389501        -0.526397         1.988324
 C         2.499198        -1.106937         0.514667
 H        -0.264736        -0.590816         1.167188
 H        -0.491761         0.622309        -0.111679
 H        -0.565203        -1.191156        -0.395143
 H         4.089604        -0.532308        -1.109626
 H         4.338721         1.064666         0.963420
 H         3.389624         2.043139        -0.126019
 H         1.961729         2.737155         1.778410
 H         3.209671        -0.527768         2.728823
 H         1.440517        -0.720677         2.514643
 H         2.408507        -2.100744         0.107878
