19
Iteration:  2870
 C        -0.056585        -0.172628         0.203906
 C         1.432934        -0.130088         0.094617
 O         2.063397         0.125256        -1.216983
 C         3.267888        -0.202500        -0.507498
 C         3.445406         1.063551         0.314066
 C         2.129933         0.750697         1.184564
 O         1.328589         1.781949         1.658479
 C         2.578238        -0.558051         1.963621
 C         2.452860        -1.176010         0.539399
 H        -0.475742        -0.594286         1.117515
 H        -0.468358         0.848603         0.202983
 H        -0.559784        -0.720425        -0.634666
 H         4.011372        -0.484216        -1.248863
 H         4.398230         1.116660         0.912350
 H         3.521282         1.964014        -0.357882
 H         1.762517         1.941094         2.520764
 H         3.555622        -0.487938         2.454512
 H         1.767674        -0.967922         2.637932
 H         2.206530        -2.253670         0.281559
