19
Iteration:  4176
 C        -0.130065        -0.358048         0.091188
 C         1.373481        -0.176699         0.113847
 O         2.032826         0.107034        -1.254695
 C         3.296120        -0.194082        -0.501546
 C         3.452127         1.037524         0.349953
 C         2.136520         0.815829         1.261495
 O         1.467245         1.916390         1.720266
 C         2.497851        -0.472218         2.012284
 C         2.515086        -1.160044         0.431298
 H        -0.361151        -0.832578         1.082069
 H        -0.685632         0.639879         0.059565
 H        -0.478624        -0.934870        -0.706168
 H         4.109960        -0.526412        -1.149497
 H         4.320576         1.068155         1.015000
 H         3.380892         1.903925        -0.246374
 H         1.529851         1.817429         2.705723
 H         3.457130        -0.469393         2.503005
 H         1.640192        -0.966802         2.413774
 H         2.395949        -2.196659         0.233947
