19
Iteration:   808charge 0 multiplicity 1
 C        -0.082789        -0.433782        -0.113795
 C         1.332600        -0.021462        -0.025423
 O         2.155976         0.258633        -1.324515
 C         3.294200        -0.211477        -0.435100
 C         3.454137         0.980723         0.526465
 C         2.117206         0.761622         1.256386
 O         1.671597         1.932026         1.962624
 C         2.330276        -0.625882         1.874813
 C         2.239523        -1.089444         0.412162
 H        -0.356779        -0.809272         0.902468
 H        -0.764704         0.452675        -0.276501
 H        -0.222517        -1.245295        -0.864435
 H         4.198699        -0.934446        -0.752480
 H         4.416726         0.975072         1.143291
 H         3.327869         1.969204         0.040326
 H         2.001671         1.869714         2.922726
 H         3.337940        -0.688912         2.238092
 H         1.577002        -0.986934         2.626261
 H         2.028009        -2.181218         0.326583
