19
Iteration:   834charge 0 multiplicity 1
 C        -0.108989        -0.267760        -0.080587
 C         1.382455         0.001068         0.012422
 O         2.050384         0.132891        -1.263405
 C         3.276403        -0.181875        -0.462574
 C         3.555013         0.938365         0.482479
 C         2.154705         0.831330         1.157139
 O         1.580336         1.865544         2.028609
 C         2.336785        -0.582511         1.848862
 C         2.452934        -1.145239         0.445131
 H        -0.453915        -0.709635         0.919146
 H        -0.724097         0.638957        -0.256816
 H        -0.263866        -0.949589        -0.929771
 H         4.082144        -0.547181        -0.944705
 H         4.442584         0.753701         1.062549
 H         3.589386         1.860570        -0.106886
 H         0.846351         1.319110         2.457926
 H         3.144990        -0.544325         2.640121
 H         1.374239        -0.910983         2.336653
 H         2.291529        -2.216211         0.214568
