19
Iteration:   742charge 0 multiplicity 1
 C        -0.158449         0.013569        -0.032438
 C         1.418111        -0.059715        -0.003361
 O         2.163436         0.166558        -1.228995
 C         3.343519        -0.262950        -0.471955
 C         3.470936         0.973795         0.493454
 C         2.131222         0.720175         1.185100
 O         1.442921         1.686436         1.916101
 C         2.500468        -0.597647         1.876900
 C         2.347609        -1.154843         0.516234
 H        -0.357304        -0.071972         1.030888
 H        -0.569739         1.011524        -0.376526
 H        -0.610527        -0.774288        -0.695961
 H         4.226054        -0.834909        -0.992466
 H         4.293866         0.929976         1.272509
 H         3.415164         2.008293         0.086982
 H         0.793540         2.045265         1.323451
 H         3.446067        -0.553816         2.416921
 H         1.724241        -1.052223         2.527734
 H         2.305751        -2.169583         0.119680
