19
Iteration:  1849
 C        -0.066697        -0.155180        -0.041817
 C         1.373578        -0.105898        -0.043921
 O         2.112138         0.194888        -1.188405
 C         3.324643        -0.152781        -0.541125
 C         3.470195         1.054162         0.505720
 C         2.193750         0.673140         1.254660
 O         1.490664         1.723925         1.974019
 C         2.363234        -0.662790         1.871530
 C         2.374159        -1.121744         0.421505
 H        -0.318183        -0.708655         0.885174
 H        -0.524655         0.791307        -0.015486
 H        -0.521711        -0.645554        -0.948643
 H         4.124745        -0.630885        -1.087938
 H         4.358777         1.084678         1.169493
 H         3.448435         2.029209         0.057715
 H         1.532075         2.643268         1.564993
 H         3.053155        -0.890581         2.658643
 H         1.430246        -0.735883         2.362345
 H         2.385584        -2.210391         0.140348
