19
Iteration:  4104
 C        -0.093426        -0.257776         0.100450
 C         1.387216        -0.217155         0.033716
 O         2.044476         0.072796        -1.234723
 C         3.299129        -0.215680        -0.514542
 C         3.343231         1.093221         0.393207
 C         2.107395         0.787195         1.141806
 O         1.481966         1.845544         1.891714
 C         2.531822        -0.515045         1.977589
 C         2.507252        -1.193333         0.490806
 H        -0.470006        -0.308894         1.106349
 H        -0.388362         0.655912        -0.425720
 H        -0.522492        -1.079467        -0.580411
 H         4.226421        -0.336551        -1.123964
 H         4.174858         1.259319         1.085443
 H         3.238594         1.948132        -0.383889
 H         1.744335         2.681335         1.483489
 H         3.405700        -0.257879         2.546370
 H         1.624877        -0.908283         2.455935
 H         2.553729        -2.353810         0.323466
