19
Iteration:   638charge 0 multiplicity 1
 C        -0.052377        -0.421198        -0.213657
 C         1.378180         0.094592        -0.000421
 O         2.083661         0.263028        -1.216290
 C         3.240817        -0.259326        -0.483350
 C         3.461290         0.933895         0.511507
 C         2.136635         0.748347         1.246365
 O         1.746168         1.917459         1.966375
 C         2.334880        -0.627676         1.948494
 C         2.285604        -1.041214         0.491338
 H        -0.414654        -1.141832         0.517000
 H        -0.638112         0.434480        -0.485629
 H         0.033831        -0.980899        -1.171515
 H         4.068990        -0.742534        -0.967959
 H         4.319603         0.807913         1.134432
 H         3.544822         1.845298        -0.095436
 H         0.954469         1.489520         2.407736
 H         3.171866        -0.916757         2.554791
 H         1.392570        -0.970873         2.432198
 H         1.884622        -2.042098         0.146477
