19
Iteration:  1702
 C        -0.030836        -0.013792        -0.053899
 C         1.433477        -0.137998        -0.002281
 O         2.027964         0.179483        -1.243002
 C         3.344955        -0.216778        -0.516632
 C         3.477326         1.036449         0.459978
 C         2.107638         0.725281         1.252330
 O         1.369619         1.738434         1.875937
 C         2.432263        -0.676103         1.943935
 C         2.529730        -1.161335         0.446659
 H        -0.457352        -0.037164         0.987850
 H        -0.237925         1.090488        -0.373042
 H        -0.595517        -0.776810        -0.518451
 H         4.073276        -0.532754        -1.316052
 H         4.251153         0.883023         1.200031
 H         3.452213         1.979358        -0.162576
 H         1.581093         1.661536         2.808247
 H         3.156495        -0.508680         2.700016
 H         1.543848        -1.133838         2.414180
 H         2.340375        -2.203972         0.236178
