19
Iteration:    48
 C        -0.057530        -0.094161        -0.058777
 C         1.410769        -0.087157         0.063516
 O         2.155173         0.154286        -1.138065
 C         3.344947        -0.239169        -0.467621
 C         3.512678         1.034720         0.431334
 C         2.209479         0.781346         1.274213
 O         1.437470         1.898576         1.736984
 C         2.308031        -0.720039         1.905276
 C         2.406807        -1.195743         0.493682
 H        -0.474726        -0.202495         1.005005
 H        -0.362742         0.937563        -0.393009
 H        -0.463350        -0.961879        -0.661907
 H         4.156406        -0.639824        -1.119922
 H         4.399751         0.949732         1.046345
 H         3.421326         1.883515        -0.277045
 H         1.047571         1.567264         2.612684
 H         2.919536        -1.064686         2.773584
 H         1.132508        -1.000999         2.089117
 H         2.134211        -2.284277         0.112451
