19
Iteration:  3567charge 0 multiplicity 1
 C        -0.096623        -0.101501         0.100306
 C         1.396797        -0.217486         0.123028
 O         1.983565        -0.047484        -1.273361
 C         3.251972        -0.164063        -0.492019
 C         3.400417         1.110357         0.390951
 C         2.126059         0.806407         1.065873
 O         1.496635         1.790932         1.825352
 C         2.562197        -0.527805         1.907913
 C         2.571360        -1.136951         0.536509
 H        -0.341660        -0.296742         1.245237
 H        -0.393547         0.975832         0.051600
 H        -0.504746        -0.778609        -0.634191
 H         4.231990        -0.405990        -0.988122
 H         4.368388         1.254721         0.931621
 H         3.273668         2.101957        -0.104559
 H         0.706906         1.407495         2.252313
 H         3.371126        -0.564272         2.617813
 H         1.539110        -0.846826         2.369522
 H         2.526601        -2.197870         0.298981
