19
Iteration:  1086charge 0 multiplicity 1
 C        -0.097874        -0.065125        -0.046473
 C         1.424037        -0.052653         0.100768
 O         2.058705         0.181951        -1.194798
 C         3.337215        -0.233988        -0.479508
 C         3.566017         0.965161         0.415078
 C         2.237098         0.772480         1.236925
 O         1.379035         1.828803         1.803264
 C         2.342432        -0.679332         1.928531
 C         2.426692        -1.170813         0.476202
 H        -0.424595        -0.494573         0.917982
 H        -0.253439         0.940383        -0.476180
 H        -0.213605        -0.839955        -0.873540
 H         3.997611        -0.689107        -1.137965
 H         4.450356         0.880787         1.046333
 H         3.488605         1.920501        -0.126399
 H         1.250452         1.482651         2.673753
 H         3.204297        -0.960943         2.650446
 H         1.310984        -0.837230         2.298482
 H         2.361849        -2.216701         0.183233
