19
Iteration:   921charge 0 multiplicity 1
 C        -0.090814        -0.114537        -0.001638
 C         1.435386        -0.094460         0.009154
 O         2.112762         0.238786        -1.194895
 C         3.311654        -0.260421        -0.479785
 C         3.497700         0.962317         0.442186
 C         2.181965         0.757273         1.140732
 O         1.523246         1.705317         1.906277
 C         2.340394        -0.548144         1.931753
 C         2.427546        -1.127459         0.480652
 H        -0.683107        -0.311694         0.976565
 H        -0.382170         0.834518        -0.507263
 H        -0.510859        -0.953684        -0.596987
 H         3.990838        -0.648034        -1.113378
 H         4.391280         1.073101         1.019409
 H         3.384672         1.904904        -0.120736
 H         0.596230         1.383472         1.827267
 H         3.139179        -0.464160         2.723760
 H         1.306771        -0.821401         2.285242
 H         2.362865        -2.216049         0.321133
