19
Iteration:  3359
 C        -0.028800        -0.289067         0.103741
 C         1.360830        -0.240363        -0.022047
 O         1.981112         0.064401        -1.247014
 C         3.230505        -0.142449        -0.442088
 C         3.420464         1.067972         0.490861
 C         2.081758         0.803120         1.129291
 O         1.521576         1.878143         1.852170
 C         2.480094        -0.503271         1.876206
 C         2.514176        -1.189669         0.494083
 H        -0.229658        -0.352885         1.207611
 H        -0.529335         0.658257        -0.162163
 H        -0.493079        -0.971750        -0.509423
 H         4.056158        -0.421406        -1.144584
 H         4.244818         0.932220         1.185446
 H         3.424035         1.970168        -0.148582
 H         1.982268         2.662494         1.440658
 H         3.459926        -0.391727         2.331243
 H         1.872597        -1.199848         2.527610
 H         2.458099        -2.265984         0.498428
