19
Iteration:  4305charge 0 multiplicity 1
 C        -0.149324        -0.371674         0.133792
 C         1.403453        -0.262990         0.024910
 O         1.997814         0.042488        -1.321996
 C         3.245258        -0.167427        -0.510625
 C         3.374886         1.146509         0.476187
 C         2.160106         0.850747         1.197409
 O         1.496347         1.904470         1.815850
 C         2.513641        -0.515797         1.875492
 C         2.537233        -1.142288         0.530312
 H        -0.585913        -0.480600         1.238252
 H        -0.662064         0.501192        -0.379463
 H        -0.354626        -1.322099        -0.349095
 H         4.075122        -0.552879        -1.070409
 H         4.452664         1.208611         0.881924
 H         3.333346         2.021372        -0.128699
 H         2.226838         2.422036         2.151999
 H         3.452728        -0.690369         2.525455
 H         1.778720        -0.807147         2.654526
 H         2.351868        -2.117736         0.307506
