19
Iteration:  1848
 C        -0.069776        -0.164175        -0.042051
 C         1.381916        -0.104043        -0.046085
 O         2.112006         0.195502        -1.196032
 C         3.318996        -0.157335        -0.538867
 C         3.473252         1.055915         0.516080
 C         2.191867         0.672670         1.255019
 O         1.486807         1.733608         1.974448
 C         2.368819        -0.660474         1.873552
 C         2.368402        -1.119385         0.414187
 H        -0.280020        -0.703550         0.889266
 H        -0.516458         0.801956         0.024213
 H        -0.527820        -0.675346        -0.942387
 H         4.115173        -0.647755        -1.097136
 H         4.356314         1.035910         1.167469
 H         3.469137         2.044418         0.069798
 H         1.548220         2.648267         1.583462
 H         3.043284        -0.893039         2.638778
 H         1.426176        -0.766715         2.360628
 H         2.390466        -2.212728         0.143844
