19
Iteration:  4530
 C        -0.119961        -0.328118         0.138832
 C         1.397513        -0.112910         0.001757
 O         2.030557         0.046313        -1.196939
 C         3.284170        -0.219945        -0.521426
 C         3.424023         1.105508         0.358933
 C         2.051577         0.809603         1.117207
 O         1.534903         1.870457         1.851527
 C         2.581075        -0.522952         1.939964
 C         2.491320        -1.130980         0.536032
 H        -0.369483        -0.660828         1.141799
 H        -0.634421         0.625374        -0.111208
 H        -0.477320        -1.017961        -0.651921
 H         4.044382        -0.494402        -1.198332
 H         4.297186         1.131664         0.953721
 H         3.354993         1.981506        -0.277037
 H         0.561681         1.683840         1.996872
 H         3.530718        -0.205608         2.279517
 H         1.877789        -0.849348         2.697921
 H         2.459885        -2.284886         0.310335
