19
Iteration:  2280charge 0 multiplicity 1
 C        -0.061347        -0.326531         0.097946
 C         1.389144        -0.068104        -0.010025
 O         2.102320         0.261810        -1.219733
 C         3.322937        -0.169284        -0.578121
 C         3.455186         0.994004         0.526413
 C         2.125373         0.763425         1.193955
 O         1.647347         1.922250         1.853062
 C         2.350965        -0.686094         1.904012
 C         2.334325        -1.196159         0.437856
 H        -0.369320        -1.030775         0.841724
 H        -0.767684         0.573878         0.171736
 H        -0.401485        -0.797138        -0.808731
 H         4.070169        -0.574559        -1.209816
 H         4.355391         0.865485         1.234703
 H         3.570422         2.074494         0.295423
 H         0.678857         1.978803         2.057259
 H         3.289592        -0.689507         2.421927
 H         1.462569        -1.077620         2.369027
 H         2.134313        -2.213368         0.097069
