19
Iteration:   388charge 0 multiplicity 1
 C        -0.193545         0.056923        -0.039577
 C         1.416577        -0.136412        -0.086305
 O         2.140937         0.044370        -1.289162
 C         3.433777        -0.140705        -0.430591
 C         3.444624         1.020132         0.517673
 C         2.011304         0.676795         1.236020
 O         1.454616         1.736816         1.976722
 C         2.363152        -0.657667         1.956696
 C         2.525321        -1.158765         0.372838
 H        -0.634794         0.171821         0.937743
 H        -0.307343         1.072546        -0.423912
 H        -0.890280        -0.448862        -0.705342
 H         4.355031        -0.404209        -0.883498
 H         4.214532         0.826178         1.257926
 H         3.577527         2.001925         0.070763
 H         1.980353         2.479922         1.733597
 H         3.178120        -0.836611         2.597172
 H         1.507119        -1.183090         2.385660
 H         2.480448        -2.334192         0.178956
