19
Iteration:  3616
 C        -0.101389        -0.411777         0.066646
 C         1.373884        -0.086984         0.153306
 O         1.961389         0.178160        -1.185230
 C         3.182530        -0.246231        -0.474203
 C         3.451955         1.116563         0.346200
 C         2.234283         0.748238         1.186505
 O         1.605235         1.888511         1.775872
 C         2.536345        -0.546752         1.911048
 C         2.425899        -1.121804         0.525217
 H        -0.574605        -0.566651         1.006089
 H        -0.534047         0.428772        -0.490687
 H        -0.038392        -1.099114        -0.810501
 H         4.008318        -0.519881        -1.176950
 H         4.252048         1.034079         1.111727
 H         3.320550         2.041666        -0.330983
 H         0.667734         1.641121         1.790979
 H         3.446633        -0.583027         2.569901
 H         1.677373        -0.854774         2.452756
 H         2.475294        -2.217342         0.325327
