19
Iteration:   751
 C        -0.077233        -0.029804        -0.095399
 C         1.370157        -0.051568        -0.009065
 O         2.068204         0.157505        -1.274215
 C         3.276783        -0.215144        -0.460487
 C         3.458884         0.964328         0.533063
 C         2.153061         0.698996         1.250615
 O         1.462384         1.740713         1.917179
 C         2.487833        -0.603382         2.003496
 C         2.428725        -1.171176         0.412688
 H        -0.434910        -0.210788         0.911979
 H        -0.483929         0.916455        -0.452437
 H        -0.536053        -0.825252        -0.721130
 H         4.230411        -0.636410        -1.079020
 H         4.289329         0.691021         1.240791
 H         3.739985         1.918973         0.031663
 H         1.104783         2.303633         1.235183
 H         3.432435        -0.695281         2.544764
 H         1.685527        -0.932950         2.625383
 H         2.308473        -2.230775         0.230961
