19
Iteration:  2802
 C        -0.075550        -0.476030        -0.068361
 C         1.322939        -0.123023        -0.013827
 O         1.980905         0.073831        -1.178615
 C         3.236479        -0.207117        -0.429750
 C         3.351014         1.117941         0.336933
 C         2.119922         0.879020         1.204727
 O         1.802017         1.916521         2.023186
 C         2.416516        -0.564066         1.885240
 C         2.462468        -1.119472         0.505732
 H        -0.445164        -0.659968         0.911854
 H        -0.748993         0.357746        -0.456830
 H        -0.241544        -1.366565        -0.712688
 H         4.162604        -0.362602        -1.058863
 H         4.264740         1.330877         0.929637
 H         3.167755         1.939582        -0.462606
 H         1.446023         2.674424         1.439541
 H         3.178033        -0.666630         2.662802
 H         1.563280        -1.129029         2.245697
 H         2.134803        -2.268846         0.422049
