19
Iteration:  1443charge 0 multiplicity 1
 C        -0.126227        -0.253808        -0.169016
 C         1.394231        -0.063777         0.032164
 O         2.103541         0.228180        -1.158232
 C         3.320104        -0.295171        -0.463120
 C         3.462835         1.146537         0.432716
 C         2.212948         0.798802         1.241495
 O         1.486452         1.735170         1.922655
 C         2.446393        -0.606948         1.863491
 C         2.306003        -1.140920         0.509591
 H        -0.650957        -0.848334         0.608365
 H        -0.660265         0.747251        -0.241404
 H        -0.375105        -0.791519        -1.146043
 H         4.032766        -0.974110        -1.114331
 H         4.305671         1.195806         1.129664
 H         3.411909         2.028829        -0.228034
 H         2.105822         2.012492         2.687965
 H         3.410174        -0.975650         2.241851
 H         1.625480        -0.787362         2.631836
 H         2.163798        -2.252868         0.305657
