19
Iteration:  3689charge 0 multiplicity 1
 C        -0.078085        -0.328892         0.000389
 C         1.392966        -0.132874         0.154374
 O         2.005338         0.086131        -1.240795
 C         3.260737        -0.235817        -0.527556
 C         3.385005         1.114062         0.237380
 C         2.097283         0.860604         1.176576
 O         1.573577         1.913594         1.936805
 C         2.554397        -0.526015         1.923557
 C         2.453960        -1.159438         0.557847
 H        -0.481111        -0.597534         0.978434
 H        -0.552476         0.571181        -0.326714
 H        -0.134805        -1.127871        -0.809854
 H         4.048065        -0.784194        -0.970796
 H         4.315578         1.094026         0.789135
 H         3.249063         1.861895        -0.493872
 H         0.992973         1.500867         2.560733
 H         3.421590        -0.600584         2.614187
 H         1.650134        -0.965937         2.419006
 H         2.440607        -2.257056         0.304569
