19
Iteration:  2044charge 0 multiplicity 1
 C        -0.101865         0.044448        -0.050985
 C         1.393813        -0.173535        -0.082525
 O         2.079233         0.056318        -1.307662
 C         3.275427        -0.174010        -0.423218
 C         3.475164         1.040346         0.445660
 C         2.047042         0.725474         1.282636
 O         1.421818         1.773661         1.965727
 C         2.518394        -0.555188         1.894188
 C         2.479748        -1.193402         0.425214
 H        -0.447303        -0.805410         0.578808
 H        -0.360811         1.003096         0.195227
 H        -0.478234        -0.229745        -1.090953
 H         4.137570        -0.565904        -0.968423
 H         4.378550         0.799967         1.016176
 H         3.476026         1.996903        -0.011253
 H         1.419239         1.496709         2.945176
 H         3.488886        -0.511123         2.429681
 H         1.703969        -0.934911         2.535014
 H         2.611976        -2.320150         0.414203
