19
Iteration:   671
 C        -0.184932        -0.216127        -0.204989
 C         1.340046        -0.165267        -0.068088
 O         2.047887         0.266335        -1.132953
 C         3.301984        -0.220757        -0.369976
 C         3.492607         0.952498         0.567917
 C         2.096593         0.716687         1.205707
 O         1.643165         1.954410         1.827397
 C         2.431075        -0.675380         1.890647
 C         2.440445        -1.135840         0.483369
 H        -0.714059        -0.631510         0.656558
 H        -0.426591         0.835819        -0.261210
 H        -0.349821        -0.683976        -1.159890
 H         3.978788        -0.638072        -1.098822
 H         4.316157         0.771716         1.224174
 H         3.553295         1.974201         0.157880
 H         1.356747         1.682229         2.678228
 H         3.344425        -0.859029         2.456578
 H         1.550358        -1.055288         2.409172
 H         2.329204        -2.208052         0.241279
