19
Iteration:  3329charge 0 multiplicity 1
 C        -0.136005        -0.426089         0.123848
 C         1.344350        -0.016847         0.146906
 O         2.069692         0.112826        -1.208852
 C         3.287800        -0.207419        -0.503617
 C         3.496402         1.079619         0.253601
 C         2.187081         0.818942         1.165184
 O         1.514445         1.854188         1.877652
 C         2.368012        -0.544987         1.869642
 C         2.467616        -1.151494         0.518232
 H        -0.466955        -0.821639         1.195047
 H        -0.870403         0.305380        -0.206348
 H         0.108645        -1.174781        -0.652500
 H         4.146364        -0.573773        -1.178538
 H         4.410074         1.369144         0.838305
 H         3.351963         1.888977        -0.465703
 H         2.064015         2.685977         1.917121
 H         3.080049        -0.747799         2.650482
 H         1.367382        -0.985328         2.260680
 H         2.283395        -2.256669         0.527742
