19
Iteration:  4875charge 0 multiplicity 1
 C        -0.160006        -0.267872         0.034741
 C         1.357978        -0.153662         0.171285
 O         1.998098         0.010694        -1.272247
 C         3.267141        -0.177971        -0.584165
 C         3.355081         1.047955         0.289438
 C         2.063529         0.776818         1.269317
 O         1.569888         1.888857         1.923708
 C         2.619043        -0.518146         1.940855
 C         2.594294        -1.078948         0.534479
 H        -0.578102        -0.345959         1.007720
 H        -0.642124         0.455476        -0.701892
 H        -0.455462        -1.215395        -0.570354
 H         4.186320        -0.555467        -1.002170
 H         4.349367         1.042835         0.800680
 H         3.208458         2.046925        -0.322782
 H         0.686609         2.105748         1.454329
 H         3.532700        -0.480961         2.572683
 H         1.886246        -1.067769         2.560053
 H         2.582140        -2.136021         0.384306
