19
Iteration:   244
 C        -0.084272        -0.121460        -0.197967
 C         1.375400         0.039376         0.018963
 O         2.087016         0.144683        -1.262938
 C         3.222871        -0.187998        -0.427395
 C         3.417892         0.893940         0.544489
 C         2.131088         0.743966         1.248292
 O         1.534279         1.806390         1.925728
 C         2.557832        -0.608774         1.934475
 C         2.410242        -1.117398         0.501642
 H        -0.530159        -0.405808         0.758679
 H        -0.592020         0.788680        -0.507627
 H        -0.201714        -0.792449        -1.044123
 H         3.977818        -0.704914        -1.049242
 H         4.310289         0.552351         1.028597
 H         3.539101         1.863656         0.109417
 H         0.567971         1.776788         1.800188
 H         3.512379        -0.730401         2.336936
 H         1.938588        -1.195335         2.606969
 H         2.174225        -2.281594         0.361555
