19
Iteration:  2945charge 0 multiplicity 1
 C        -0.110088        -0.435061        -0.064199
 C         1.346746        -0.082691         0.151475
 O         1.975795         0.163507        -1.202829
 C         3.259136        -0.218373        -0.478132
 C         3.438518         1.028827         0.321538
 C         2.166808         0.832936         1.142440
 O         1.521078         1.836029         1.883269
 C         2.592741        -0.502965         1.955529
 C         2.408228        -1.131973         0.583385
 H        -0.760947        -0.408376         0.760809
 H        -0.490374         0.432160        -0.636254
 H        -0.313806        -1.341541        -0.664278
 H         4.044986        -0.708989        -1.033465
 H         4.348071         1.112168         0.889310
 H         3.353751         1.872861        -0.359006
 H         2.177644         2.564204         1.903144
 H         3.535992        -0.509080         2.451906
 H         1.804713        -0.888585         2.562630
 H         2.124971        -2.224354         0.371053
