19
Iteration:  3859
 C        -0.111722        -0.396333        -0.009479
 C         1.368779        -0.230716        -0.025137
 O         1.986578        -0.005943        -1.256987
 C         3.227576        -0.218077        -0.496450
 C         3.356556         1.101027         0.369182
 C         2.175015         0.825684         1.266375
 O         1.611001         1.927666         1.897258
 C         2.585168        -0.387951         1.933478
 C         2.481899        -1.096424         0.521917
 H        -0.632907        -0.394231         1.010208
 H        -0.472315         0.594714        -0.440761
 H        -0.539964        -1.208593        -0.506093
 H         4.073846        -0.454222        -1.121117
 H         4.293050         1.030700         1.034920
 H         3.297667         1.957760        -0.307232
 H         0.718121         1.742581         2.286303
 H         3.383951        -0.421875         2.616770
 H         1.761313        -0.835449         2.522023
 H         2.567916        -2.144952         0.409900
