19
Iteration:  1933charge 0 multiplicity 1
 C        -0.062486        -0.140140        -0.076479
 C         1.392918        -0.033166         0.018306
 O         2.105676         0.300163        -1.165267
 C         3.347569        -0.216076        -0.459762
 C         3.453578         0.983231         0.418886
 C         2.134795         0.726490         1.271426
 O         1.505285         1.680014         2.013073
 C         2.378467        -0.626206         1.860279
 C         2.421557        -1.220052         0.399782
 H        -0.604470         0.088015         0.842933
 H        -0.395765         0.661570        -0.802946
 H        -0.419432        -1.127576        -0.480950
 H         4.266496        -0.399138        -1.055718
 H         4.454198         1.064248         0.830990
 H         3.272571         1.851259        -0.286289
 H         0.913852         2.187405         1.483480
 H         3.245961        -0.676045         2.558949
 H         1.395728        -0.924925         2.353105
 H         2.310205        -2.319035         0.285748
