19
Iteration:  3258charge 0 multiplicity 1
 C        -0.024327        -0.199256         0.062668
 C         1.448565        -0.267868         0.107891
 O         1.961133         0.109815        -1.214659
 C         3.280175        -0.193971        -0.469100
 C         3.355926         1.120610         0.333836
 C         2.179556         0.802982         1.181740
 O         1.456114         1.787629         1.856847
 C         2.482279        -0.538843         1.881670
 C         2.497806        -1.216322         0.584067
 H        -0.507135        -0.379330         0.992774
 H        -0.167447         0.934901        -0.093663
 H        -0.433863        -0.805532        -0.788776
 H         4.035443        -0.487925        -1.151142
 H         4.354490         1.438939         0.679159
 H         3.131933         1.919613        -0.415508
 H         1.558415         2.547947         1.261518
 H         3.427292        -0.608662         2.541849
 H         1.716998        -0.921054         2.509306
 H         2.568006        -2.316100         0.474634
