19
Iteration:  3354charge 0 multiplicity 1
 C        -0.041162        -0.344852         0.102421
 C         1.375049        -0.224022        -0.021916
 O         1.986966         0.078132        -1.268104
 C         3.218846        -0.130692        -0.484858
 C         3.421903         1.053270         0.437662
 C         2.132418         0.801910         1.179796
 O         1.542206         1.862435         1.834229
 C         2.418558        -0.521528         1.936890
 C         2.531213        -1.149059         0.505539
 H        -0.114943        -0.327830         1.178693
 H        -0.482906         0.675672        -0.053755
 H        -0.594254        -1.138347        -0.576781
 H         4.039915        -0.496497        -1.059522
 H         4.300190         1.047419         1.130282
 H         3.421558         2.008529        -0.112227
 H         1.927362         2.716221         1.658320
 H         3.386280        -0.366435         2.530717
 H         1.670817        -0.977571         2.563661
 H         2.297642        -2.237075         0.282707
