19
Iteration:  2111
 C        -0.105823        -0.286738        -0.032420
 C         1.382012        -0.078450         0.054029
 O         2.079349         0.285769        -1.193105
 C         3.283991        -0.144409        -0.570020
 C         3.475031         0.907871         0.504995
 C         2.083346         0.714585         1.254314
 O         1.572106         1.885417         1.899215
 C         2.451373        -0.601509         1.887233
 C         2.405535        -1.157309         0.444353
 H        -0.301606        -0.568275         1.028712
 H        -0.587363         0.506865        -0.425674
 H        -0.258691        -1.101098        -0.776100
 H         4.147694        -0.402620        -1.221871
 H         4.221312         0.420548         1.127869
 H         3.757027         1.879884         0.120220
 H         0.650875         2.096617         1.840809
 H         3.321033        -0.649422         2.566712
 H         1.594784        -1.151888         2.262718
 H         2.335065        -2.226375         0.143761
