19
Iteration:  3305
 C        -0.072832        -0.423602         0.030281
 C         1.365457        -0.174244         0.009994
 O         1.997183         0.150530        -1.260684
 C         3.249197        -0.226027        -0.475755
 C         3.387440         1.023352         0.386517
 C         2.153964         0.788816         1.189646
 O         1.517105         1.894416         1.883038
 C         2.563866        -0.436994         1.966828
 C         2.354496        -1.124773         0.502371
 H        -0.338729        -0.801737         1.094727
 H        -0.587823         0.539621        -0.147043
 H        -0.189419        -1.130661        -0.757558
 H         4.089378        -0.623970        -1.110039
 H         4.310239         0.988812         0.985136
 H         3.502471         1.948661        -0.209054
 H         2.242131         2.594432         1.833931
 H         3.539503        -0.603958         2.395445
 H         1.790394        -0.768978         2.737213
 H         2.388012        -2.197899         0.370793
