19
Iteration:  2702
 C        -0.120725        -0.113186         0.114791
 C         1.413282        -0.251821         0.130601
 O         2.046955         0.007731        -1.304445
 C         3.300054        -0.164727        -0.527781
 C         3.383886         1.054322         0.425077
 C         2.073126         0.779481         1.151810
 O         1.485055         1.882287         1.827408
 C         2.525926        -0.512568         1.893977
 C         2.515694        -1.200608         0.495145
 H        -0.655103        -0.488915         0.974835
 H        -0.232870         0.960544         0.154363
 H        -0.678417        -0.424811        -0.722905
 H         4.218671        -0.378587        -1.105731
 H         4.313843         1.048966         0.978461
 H         3.588296         1.989163        -0.105544
 H         1.019423         1.453942         2.578130
 H         3.503562        -0.400598         2.356301
 H         1.841001        -1.019290         2.508518
 H         2.478094        -2.295459         0.276114
