19
Iteration:  3897
 C        -0.095916        -0.298214         0.222739
 C         1.398271        -0.178901         0.098865
 O         2.062944         0.116493        -1.199930
 C         3.322096        -0.230156        -0.459317
 C         3.425936         1.075909         0.314884
 C         2.210053         0.855492         1.169850
 O         1.408636         1.855202         1.705306
 C         2.486271        -0.534603         1.859413
 C         2.472246        -1.147250         0.492610
 H        -0.204275        -0.183386         1.300973
 H        -0.521047         0.652686        -0.145217
 H        -0.636572        -1.225493        -0.281709
 H         4.196244        -0.653039        -1.033158
 H         4.290021         1.399491         0.868754
 H         3.158094         1.930289        -0.375322
 H         1.140932         1.509036         2.603597
 H         3.396968        -0.542494         2.561373
 H         1.530283        -0.873148         2.281344
 H         2.483232        -2.286165         0.207293
