19
Iteration:  2554
 C        -0.110491        -0.021549         0.118287
 C         1.344510        -0.132165        -0.009614
 O         1.951612         0.023504        -1.284165
 C         3.284171        -0.171785        -0.427133
 C         3.463564         1.114580         0.445722
 C         2.147493         0.781724         1.163838
 O         1.467797         1.780827         1.780029
 C         2.616045        -0.627593         1.951658
 C         2.512445        -1.193309         0.458500
 H        -0.515293         0.025957         1.113426
 H        -0.516890         0.846842        -0.549496
 H        -0.699904        -0.955378        -0.189948
 H         4.171096        -0.532004        -0.970221
 H         4.285461         0.927294         1.180573
 H         3.460798         2.049487        -0.137258
 H         0.855211         1.454094         2.511842
 H         3.612841        -0.610112         2.385830
 H         1.773236        -1.015294         2.566978
 H         2.773340        -2.280566         0.200807
