19
Iteration:   668charge 0 multiplicity 1
 C        -0.188617        -0.246875        -0.230760
 C         1.336392        -0.145047        -0.070566
 O         2.047267         0.286342        -1.118341
 C         3.285029        -0.230784        -0.395527
 C         3.509242         0.960541         0.578108
 C         2.098339         0.723381         1.240142
 O         1.659239         1.955604         1.818805
 C         2.421093        -0.666244         1.881289
 C         2.410180        -1.139101         0.489549
 H        -0.680513        -0.715605         0.651829
 H        -0.380555         0.857583        -0.200959
 H        -0.305531        -0.817873        -1.182324
 H         4.006661        -0.638041        -1.018795
 H         4.342102         0.858080         1.288337
 H         3.601978         1.886545        -0.011592
 H         1.368705         1.658540         2.714712
 H         3.394724        -0.863657         2.376607
 H         1.534672        -1.130057         2.435780
 H         2.361017        -2.244696         0.301979
