19
Iteration:   913
 C        -0.101576        -0.022585         0.028562
 C         1.423889        -0.087288        -0.044359
 O         2.105709         0.212824        -1.210764
 C         3.334323        -0.194129        -0.471446
 C         3.510635         0.975840         0.417105
 C         2.166651         0.705030         1.215169
 O         1.441924         1.702925         1.882033
 C         2.392491        -0.527779         1.909168
 C         2.391482        -1.212238         0.516248
 H        -0.549456        -0.197850         1.039340
 H        -0.513736         0.885949        -0.452642
 H        -0.339981        -0.935865        -0.617092
 H         4.156300        -0.639768        -1.066840
 H         4.392598         0.876390         1.096593
 H         3.679280         1.853990        -0.229686
 H         0.498795         1.451173         1.659017
 H         3.357063        -0.664526         2.513931
 H         1.595134        -0.865733         2.559359
 H         2.554941        -2.274879         0.385026
