19
Iteration:  4630
 C         0.015296        -0.368050         0.082390
 C         1.422828        -0.074281         0.153536
 O         2.016291         0.137732        -1.226064
 C         3.198064        -0.223995        -0.563966
 C         3.409410         1.051326         0.336835
 C         2.149600         0.801105         1.180928
 O         1.421961         1.796037         1.780029
 C         2.469152        -0.497133         1.935544
 C         2.486614        -1.135768         0.560585
 H        -0.347252        -0.642791         1.138996
 H        -0.448569         0.568400        -0.089675
 H        -0.138654        -1.188452        -0.580275
 H         3.994430        -0.583361        -1.148425
 H         4.258641         1.257470         0.974091
 H         3.319394         1.942735        -0.212040
 H         2.061158         2.491117         2.062329
 H         3.445512        -0.481543         2.406371
 H         1.632519        -0.926884         2.532890
 H         2.395938        -2.237103         0.289566
