19
Iteration:  1035charge 0 multiplicity 1
 C        -0.199325        -0.067251         0.015250
 C         1.348609        -0.125769        -0.081725
 O         2.172077         0.132034        -1.230684
 C         3.310293        -0.261999        -0.381351
 C         3.475861         1.082803         0.560879
 C         2.049758         0.717692         1.197411
 O         1.568837         1.826793         1.822021
 C         2.454523        -0.637039         1.860370
 C         2.423356        -1.191897         0.431671
 H        -0.293332        -0.292894         1.064903
 H        -0.317991         1.035486        -0.077775
 H        -0.702675        -0.821193        -0.602092
 H         4.132713        -0.587038        -1.129927
 H         4.309415         1.017452         1.304262
 H         3.604130         1.920681        -0.146733
 H         0.688712         1.852131         2.189522
 H         3.367533        -0.544765         2.496067
 H         1.720643        -1.099636         2.533544
 H         2.290237        -2.241502         0.142025
