19
Iteration:   342
 C        -0.161090        -0.091846        -0.142498
 C         1.448206        -0.031781         0.035413
 O         2.132674         0.356629        -1.161277
 C         3.357611        -0.322023        -0.417032
 C         3.550601         1.003906         0.450311
 C         2.126277         0.690875         1.155604
 O         1.428776         1.727102         1.783696
 C         2.461696        -0.704169         1.950446
 C         2.308433        -1.158881         0.563840
 H        -0.611238        -0.283982         0.800187
 H        -0.639343         0.814394        -0.427067
 H        -0.464983        -0.861241        -0.822200
 H         4.172912        -0.674729        -1.104974
 H         4.259418         1.246904         1.236774
 H         3.470615         1.856517        -0.206571
 H         1.502055         1.763919         2.732854
 H         3.420798        -0.699373         2.379177
 H         1.714565        -1.061049         2.655853
 H         2.098534        -2.290699         0.112911
