19
Iteration:  1152charge 0 multiplicity 1
 C        -0.091658        -0.314341        -0.291898
 C         1.412550        -0.117374        -0.009736
 O         2.008637         0.146064        -1.191353
 C         3.245969        -0.217871        -0.488960
 C         3.475696         1.054704         0.463561
 C         2.256324         0.800796         1.298590
 O         1.699607         1.885700         1.988281
 C         2.237914        -0.590318         1.929323
 C         2.376584        -1.116271         0.499045
 H        -0.707894        -0.762020         0.573092
 H        -0.485573         0.726846        -0.631191
 H        -0.172883        -1.114501        -1.133221
 H         4.019629        -0.595240        -1.073461
 H         4.386388         0.995980         1.081015
 H         3.213618         1.933984        -0.127128
 H         1.746331         1.825584         2.990992
 H         3.053827        -1.046026         2.650985
 H         1.205452        -0.504205         2.351764
 H         2.459610        -2.174286         0.241480
