19
Iteration:  3160
 C        -0.139541        -0.455775        -0.056239
 C         1.378379        -0.228119         0.036152
 O         1.949286         0.107399        -1.130847
 C         3.291053        -0.125867        -0.482406
 C         3.387073         1.080244         0.346218
 C         2.151244         0.817129         1.249817
 O         1.606723         1.982912         1.870177
 C         2.522122        -0.585213         1.916688
 C         2.409358        -1.163412         0.510367
 H        -0.532782        -0.393828         0.909998
 H        -0.642084         0.425124        -0.576721
 H        -0.417547        -1.407855        -0.610874
 H         4.108032        -0.356743        -1.160727
 H         4.350547         1.143518         0.917290
 H         3.330738         2.088891        -0.115955
 H         2.200087         2.688932         1.640551
 H         3.589339        -0.780290         2.371190
 H         1.688150        -0.855194         2.537504
 H         2.432061        -2.285191         0.488426
