19
Iteration:  3447charge 0 multiplicity 1
 C        -0.222510        -0.298859         0.015241
 C         1.394439        -0.167572        -0.022665
 O         2.030961         0.079378        -1.309655
 C         3.284089        -0.194936        -0.442984
 C         3.368390         1.073776         0.402737
 C         2.191083         0.771486         1.178336
 O         1.559972         1.891842         1.934576
 C         2.511827        -0.549604         1.995243
 C         2.487357        -1.156416         0.504438
 H        -0.312420        -0.348147         1.176606
 H        -0.813204         0.615197        -0.156052
 H        -0.571312        -1.186415        -0.406408
 H         4.263840        -0.471559        -1.004001
 H         4.259883         1.150027         1.052950
 H         3.450767         2.048324        -0.120865
 H         1.380189         2.497556         1.150963
 H         3.510519        -0.630166         2.330534
 H         1.647686        -0.950919         2.636411
 H         2.557638        -2.221127         0.248822
