19
Iteration:   527charge 0 multiplicity 1
 C        -0.111297         0.030425        -0.075015
 C         1.404787        -0.031794         0.014327
 O         2.134010         0.188696        -1.238559
 C         3.307834        -0.255556        -0.490894
 C         3.479189         0.957228         0.539772
 C         2.105130         0.705970         1.147907
 O         1.386468         1.668252         1.882046
 C         2.456082        -0.553336         1.876983
 C         2.458449        -1.186229         0.488510
 H        -0.476417        -0.155588         0.951062
 H        -0.467618         1.087571        -0.322205
 H        -0.502950        -0.685329        -0.849121
 H         4.184573        -0.653309        -0.970355
 H         4.242559         0.762552         1.304636
 H         3.657101         1.852072        -0.064741
 H         1.702230         1.822770         2.801775
 H         3.393386        -0.704849         2.473350
 H         1.524262        -0.931708         2.399430
 H         2.215998        -2.327692         0.424677
