19
Iteration:   897
 C        -0.092020         0.023299        -0.015621
 C         1.415277        -0.074863         0.056621
 O         2.123954         0.108618        -1.255369
 C         3.264562        -0.232025        -0.432020
 C         3.516568         1.017558         0.524376
 C         2.110193         0.788726         1.159872
 O         1.340775         1.773981         1.838428
 C         2.616221        -0.740118         1.916238
 C         2.410459        -1.184245         0.469929
 H        -0.416161        -0.112137         1.062733
 H        -0.305604         1.080579        -0.294883
 H        -0.738591        -0.683827        -0.462092
 H         4.105045        -0.552882        -1.063939
 H         4.372229         0.940793         1.200571
 H         3.628032         1.999259         0.060014
 H         0.412743         1.791494         1.433607
 H         3.609873        -0.703444         2.298283
 H         1.834138        -1.073063         2.647480
 H         2.175144        -2.212692         0.107204
