19
Iteration:  1722
 C        -0.090983         0.026501        -0.046900
 C         1.419804         0.008687         0.081180
 O         2.181102         0.095089        -1.241003
 C         3.261805        -0.221750        -0.447427
 C         3.445306         1.056936         0.398610
 C         2.183325         0.772903         1.195968
 O         1.333269         1.594325         1.926850
 C         2.484683        -0.615782         1.848028
 C         2.388044        -1.169248         0.494455
 H        -0.630781         0.031296         0.933483
 H        -0.251286         1.046700        -0.471584
 H        -0.408776        -0.816810        -0.651217
 H         4.229321        -0.501896        -0.847753
 H         4.470302         1.177824         0.808986
 H         3.030465         1.811809        -0.263428
 H         1.721095         1.496250         2.784812
 H         3.442692        -0.802576         2.387440
 H         1.570784        -0.846319         2.436512
 H         2.493861        -2.152862         0.092836
