19
Iteration:  4960
 C        -0.150561        -0.342822         0.226821
 C         1.364903        -0.254125         0.087836
 O         1.987266         0.108970        -1.173413
 C         3.290063        -0.101889        -0.497131
 C         3.434322         1.145827         0.384436
 C         2.083989         0.800949         1.109967
 O         1.488273         1.878700         1.646954
 C         2.553170        -0.573613         1.919580
 C         2.540536        -1.158227         0.492267
 H        -0.453928        -0.572069         1.227162
 H        -0.629540         0.599898         0.097129
 H        -0.411551        -1.180510        -0.433042
 H         4.153403        -0.582225        -1.110682
 H         4.452257         1.183780         0.817334
 H         3.415027         2.009261        -0.231160
 H         1.682171         1.907525         2.552876
 H         3.548717        -0.562450         2.512175
 H         1.706436        -0.883917         2.604695
 H         2.529853        -2.133159         0.162064
