19
Iteration:  3174
 C        -0.148862        -0.384042        -0.003052
 C         1.320138        -0.139960         0.197283
 O         2.010738         0.162934        -1.187606
 C         3.217228        -0.201793        -0.497765
 C         3.354994         1.147006         0.396079
 C         2.139837         0.742381         1.188228
 O         1.639744         1.922796         1.818098
 C         2.490350        -0.598743         1.948441
 C         2.571523        -1.196338         0.500050
 H        -0.736538        -0.529644         0.920218
 H        -0.479133         0.354522        -0.700145
 H        -0.162446        -1.340282        -0.499294
 H         3.957346        -0.591460        -1.181887
 H         4.172509         1.337118         1.054484
 H         3.098647         1.863304        -0.369191
 H         2.045917         2.657613         1.301146
 H         3.271188        -0.529294         2.704872
 H         1.573952        -1.049305         2.355131
 H         2.514664        -2.184310         0.056456
