19
Iteration:  1759charge 0 multiplicity 1
 C        -0.118695        -0.075669        -0.156433
 C         1.361173        -0.107096         0.042752
 O         2.132004         0.161111        -1.269698
 C         3.254984        -0.170463        -0.427668
 C         3.393056         0.950494         0.514901
 C         2.107129         0.731797         1.206851
 O         1.446564         1.767353         1.988681
 C         2.523604        -0.645088         1.869696
 C         2.461260        -1.160676         0.442482
 H        -0.629293        -0.153557         0.788607
 H        -0.413047         0.894426        -0.592912
 H        -0.539668        -0.788461        -0.871942
 H         4.031392        -0.504467        -1.142106
 H         4.294430         0.946422         1.076709
 H         3.421777         1.899533        -0.046130
 H         2.151324         2.062280         2.612863
 H         3.431758        -0.427047         2.340338
 H         1.807790        -1.037070         2.602136
 H         2.396664        -2.251909         0.289942
