19
Iteration:   350
 C        -0.066161        -0.051889        -0.131279
 C         1.380998        -0.057382         0.050328
 O         2.145028         0.318366        -1.183814
 C         3.355404        -0.271411        -0.401475
 C         3.462214         0.990790         0.415311
 C         2.190534         0.699336         1.238350
 O         1.384591         1.661760         1.791796
 C         2.431612        -0.641264         1.969343
 C         2.322289        -1.190673         0.477515
 H        -0.540541        -0.202318         0.858007
 H        -0.216607         0.981220        -0.444772
 H        -0.361479        -0.856053        -0.800297
 H         4.088326        -0.651850        -1.159592
 H         4.340591         1.060855         1.108019
 H         3.513333         1.848145        -0.283362
 H         1.647632         1.877854         2.704929
 H         3.473047        -0.695472         2.397289
 H         1.619303        -0.818285         2.686476
 H         2.041860        -2.178337         0.257158
