19
Iteration:  3112
 C        -0.037354        -0.309764         0.061058
 C         1.422870        -0.156647         0.041849
 O         2.030673         0.044689        -1.188229
 C         3.201030        -0.209488        -0.453234
 C         3.437423         1.097927         0.235932
 C         2.174238         0.831115         1.142795
 O         1.498493         1.786201         1.922663
 C         2.434636        -0.481852         1.927406
 C         2.446968        -1.124966         0.535593
 H        -0.491513        -0.694078         1.075726
 H        -0.601083         0.627698        -0.011584
 H        -0.394340        -0.960400        -0.726469
 H         4.117933        -0.478688        -1.024951
 H         4.347599         1.454479         0.761411
 H         3.309356         1.768447        -0.627216
 H         2.050402         2.570756         2.166690
 H         3.374806        -0.490842         2.470824
 H         1.540594        -0.934579         2.489925
 H         2.324092        -2.139811         0.251953
