19
Iteration:   343
 C        -0.150072        -0.087958        -0.143334
 C         1.442619        -0.037060         0.040693
 O         2.133547         0.356361        -1.165466
 C         3.363686        -0.320045        -0.416386
 C         3.537991         1.003596         0.441756
 C         2.135448         0.689306         1.164090
 O         1.423456         1.715135         1.785540
 C         2.457801        -0.699363         1.955746
 C         2.307966        -1.157214         0.559636
 H        -0.600275        -0.266227         0.810010
 H        -0.583180         0.871929        -0.421243
 H        -0.454316        -0.881830        -0.820991
 H         4.149357        -0.657058        -1.113033
 H         4.257189         1.238217         1.218408
 H         3.485939         1.852209        -0.216792
 H         1.508136         1.790066         2.715871
 H         3.418183        -0.685587         2.365418
 H         1.698249        -1.021848         2.670039
 H         2.070484        -2.296735         0.113574
