19
Iteration:  2667charge 0 multiplicity 1
 C        -0.114749        -0.393174        -0.055859
 C         1.356737        -0.047466         0.130179
 O         2.033661         0.109811        -1.242658
 C         3.269305        -0.181637        -0.451785
 C         3.493428         1.113072         0.226336
 C         2.147460         0.823985         1.154907
 O         1.649347         1.849696         1.899084
 C         2.426526        -0.538268         1.974289
 C         2.347114        -1.138366         0.563424
 H        -0.447694        -1.200812         0.693062
 H        -0.707915         0.441597         0.137949
 H        -0.182948        -0.650879        -1.105433
 H         4.150959        -0.687286        -0.836803
 H         4.407834         1.227389         0.822489
 H         3.158460         1.789697        -0.546528
 H         1.374765         1.440740         2.743563
 H         3.373207        -0.615484         2.456359
 H         1.726368        -0.813199         2.705921
 H         2.117799        -2.152887         0.397079
