19
Iteration:   907charge 0 multiplicity 1
 C        -0.088078         0.005423         0.006935
 C         1.394369        -0.081208         0.003428
 O         2.109208         0.181624        -1.250519
 C         3.317307        -0.197376        -0.445547
 C         3.540783         1.009003         0.433672
 C         2.146736         0.731715         1.215846
 O         1.384168         1.718308         1.857388
 C         2.474769        -0.602025         1.908131
 C         2.396093        -1.239751         0.526861
 H        -0.346024        -0.067518         1.058048
 H        -0.588431         0.901554        -0.367181
 H        -0.469972        -0.778019        -0.605192
 H         4.226769        -0.518906        -1.087592
 H         4.332640         0.733945         1.143487
 H         3.709629         1.906120        -0.167950
 H         0.416166         1.678346         1.661831
 H         3.426115        -0.757660         2.345290
 H         1.738363        -0.894169         2.693969
 H         2.483267        -2.331824         0.294614
