19
Iteration:  2830charge 0 multiplicity 1
 C        -0.148603        -0.379176        -0.119156
 C         1.331435        -0.178864         0.072555
 O         2.020844         0.076355        -1.233593
 C         3.195547        -0.155646        -0.556980
 C         3.412222         1.105038         0.283766
 C         2.141174         0.815477         1.204997
 O         1.617839         1.865229         1.953855
 C         2.515479        -0.518669         2.060480
 C         2.449140        -1.143962         0.573920
 H        -0.562548        -0.881446         0.845438
 H        -0.644580         0.563372        -0.245752
 H        -0.282272        -1.017979        -0.987011
 H         4.046458        -0.447821        -1.152024
 H         4.335717         1.010270         0.876664
 H         3.203734         1.957206        -0.378423
 H         2.248245         2.619965         1.953707
 H         3.498013        -0.468367         2.598293
 H         1.818429        -1.005230         2.815784
 H         2.363878        -2.147122         0.388748
