19
Iteration:   823charge 0 multiplicity 1
 C        -0.070749        -0.339691        -0.084044
 C         1.354726         0.060342        -0.081601
 O         2.139007         0.127272        -1.275934
 C         3.246753        -0.267020        -0.480368
 C         3.470911         0.975771         0.511675
 C         2.143821         0.851454         1.241637
 O         1.600676         1.918653         2.026620
 C         2.384764        -0.590328         1.862904
 C         2.334333        -1.122545         0.438001
 H        -0.327827        -0.912224         0.884837
 H        -0.855979         0.418639        -0.249242
 H        -0.212298        -1.165948        -0.795470
 H         3.993232        -0.436893        -1.120998
 H         4.244417         0.792438         1.244346
 H         3.817340         1.826228        -0.065422
 H         1.296185         1.589324         2.891150
 H         3.297937        -0.807441         2.508617
 H         1.450456        -1.003508         2.349990
 H         2.097734        -2.057422        -0.088115
