19
Iteration:  1222charge 0 multiplicity 1
 C        -0.057929         0.008988         0.103456
 C         1.411478        -0.073025         0.064241
 O         2.147376         0.151387        -1.185179
 C         3.324739        -0.172861        -0.475750
 C         3.437414         1.028846         0.462157
 C         2.138345         0.692580         1.237503
 O         1.474563         1.741102         1.759612
 C         2.344253        -0.721128         1.918080
 C         2.506917        -1.138186         0.442838
 H        -0.479879        -0.131696         1.076231
 H        -0.348580         0.992035        -0.237857
 H        -0.582966        -0.687673        -0.488150
 H         4.142869        -0.475888        -1.289729
 H         4.132564         1.016081         1.267551
 H         3.281177         1.857526        -0.215877
 H         0.609870         1.736000         1.241273
 H         3.118781        -1.037910         2.618757
 H         1.380670        -1.106037         2.236600
 H         2.548014        -2.165665         0.045687
