19
Iteration:  3695charge 0 multiplicity 1
 C        -0.080497        -0.277592        -0.015496
 C         1.430520        -0.164317         0.108252
 O         1.961441         0.092113        -1.237374
 C         3.195082        -0.235653        -0.517077
 C         3.399503         1.069608         0.268739
 C         2.158798         0.818233         1.238424
 O         1.534493         1.879083         1.912069
 C         2.562862        -0.456416         1.930376
 C         2.500707        -1.160627         0.559100
 H        -0.549707        -0.742299         0.885039
 H        -0.460160         0.711732        -0.407744
 H        -0.112832        -1.093827        -0.708165
 H         4.095006        -0.669712        -1.070451
 H         4.413963         1.052565         0.751930
 H         3.229897         1.816692        -0.568595
 H         0.837686         1.612254         2.540227
 H         3.460341        -0.555059         2.533905
 H         1.728177        -0.821086         2.566310
 H         2.424361        -2.182782         0.287873
