19
Iteration:  4687charge 0 multiplicity 1
 C        -0.051813        -0.318066         0.074085
 C         1.439509        -0.127089         0.016014
 O         1.973538         0.101139        -1.235302
 C         3.260796        -0.210263        -0.487299
 C         3.402883         1.049130         0.333648
 C         2.150670         0.774663         1.177571
 O         1.484490         1.826919         1.905337
 C         2.505421        -0.508572         1.927441
 C         2.484056        -1.133126         0.532903
 H        -0.306722        -0.134890         1.173043
 H        -0.603216         0.289438        -0.653307
 H        -0.420796        -1.289974        -0.266817
 H         4.286465        -0.413953        -0.982984
 H         4.172950         1.245220         1.189485
 H         3.074388         1.893129        -0.291766
 H         1.422663         2.654873         1.412262
 H         3.449320        -0.572581         2.472642
 H         1.797701        -0.926986         2.603293
 H         2.503171        -2.137937         0.204104
