19
Iteration:  1089charge 0 multiplicity 1
 C        -0.086396        -0.096844        -0.052997
 C         1.408454        -0.049688         0.087415
 O         2.070475         0.186351        -1.204784
 C         3.315692        -0.232953        -0.462631
 C         3.552323         0.959071         0.429145
 C         2.221310         0.782156         1.227604
 O         1.405175         1.821385         1.819635
 C         2.338775        -0.668236         1.911710
 C         2.423818        -1.172222         0.499478
 H        -0.518419        -0.480083         0.875338
 H        -0.281309         0.899362        -0.481235
 H        -0.260610        -0.792027        -0.910821
 H         4.080525        -0.592988        -1.202630
 H         4.485615         0.896099         1.034210
 H         3.589327         1.856248        -0.209731
 H         1.291430         1.511959         2.745409
 H         3.215220        -0.911148         2.565392
 H         1.353878        -0.763940         2.358742
 H         2.349646        -2.217616         0.182369
