19
Iteration:  2328
 C        -0.201678        -0.335392        -0.161814
 C         1.288910        -0.148100         0.072502
 O         2.016771         0.204658        -1.218892
 C         3.307457        -0.131500        -0.510090
 C         3.501393         0.968701         0.484078
 C         2.152487         0.771919         1.223392
 O         1.710575         1.919970         1.954067
 C         2.463841        -0.611786         1.910445
 C         2.387709        -1.142291         0.467337
 H        -0.787938        -0.499575         0.760158
 H        -0.668907         0.508635        -0.559162
 H        -0.462865        -1.267796        -0.724960
 H         4.233149        -0.149741        -1.168442
 H         4.279829         0.853326         1.177715
 H         3.843306         1.862533         0.006191
 H         0.829014         1.765763         2.336080
 H         3.460760        -0.664768         2.336781
 H         1.566825        -0.843574         2.482496
 H         2.280129        -2.230180         0.233831
