19
Iteration:  3503
 C        -0.156560        -0.446118         0.015826
 C         1.362906        -0.170335         0.084284
 O         2.029841         0.142224        -1.254053
 C         3.198317        -0.153377        -0.575799
 C         3.545028         1.034122         0.445885
 C         2.210594         0.763288         1.197205
 O         1.484778         1.911734         1.814997
 C         2.517063        -0.470532         1.941188
 C         2.382211        -1.101445         0.534728
 H        -0.550280        -0.669352         1.047876
 H        -0.684549         0.449807        -0.291612
 H        -0.437635        -1.192789        -0.724658
 H         4.070573        -0.497229        -1.165296
 H         4.396109         0.742843         1.069894
 H         3.463636         1.992440        -0.040549
 H         2.122541         2.214521         2.446213
 H         3.501973        -0.541800         2.390039
 H         1.761837        -0.861380         2.691094
 H         2.405902        -2.182248         0.346908
