19
Iteration:  3225charge 0 multiplicity 1
 C        -0.199537        -0.226001         0.207660
 C         1.364143        -0.058956         0.042557
 O         2.074358        -0.013966        -1.319689
 C         3.351121        -0.250996        -0.417893
 C         3.502557         1.057464         0.388063
 C         2.149568         0.851185         1.120989
 O         1.393738         1.714741         1.944479
 C         2.541129        -0.458529         1.812190
 C         2.466619        -1.059407         0.504504
 H        -0.376216        -0.388236         1.229702
 H        -0.570715         0.777768        -0.195769
 H        -0.581959        -1.058496        -0.481922
 H         4.249452        -0.593144        -0.904048
 H         4.437332         0.934309         1.004286
 H         3.555976         1.869966        -0.377088
 H         0.840138         2.307910         1.340272
 H         3.623967        -0.459864         2.211362
 H         1.793494        -0.919269         2.399117
 H         2.434374        -2.166306         0.354757
