19
Iteration:  1238charge 0 multiplicity 1
 C        -0.017298        -0.002705         0.081401
 C         1.453992        -0.180216        -0.008960
 O         2.016698         0.216929        -1.217332
 C         3.368535        -0.183250        -0.474594
 C         3.471560         0.966799         0.501983
 C         2.127557         0.707689         1.159653
 O         1.406311         1.741171         1.864374
 C         2.354749        -0.596047         1.882726
 C         2.547823        -1.279268         0.456786
 H        -0.531912        -0.087346         1.083214
 H        -0.210782         1.095383        -0.073785
 H        -0.563975        -0.640434        -0.703016
 H         4.226915        -0.494377        -1.029494
 H         4.501634         0.972271         0.982687
 H         3.497011         2.001676         0.077387
 H         0.740826         2.211452         1.330780
 H         3.101753        -0.464574         2.703937
 H         1.385102        -0.988087         2.253329
 H         2.410139        -2.360250         0.306362
