19
Iteration:  3519
 C        -0.117115        -0.332471         0.071910
 C         1.372251        -0.057040         0.039756
 O         1.981092         0.060855        -1.187796
 C         3.313889        -0.205751        -0.391868
 C         3.405890         1.069011         0.400221
 C         2.085187         0.831187         1.136856
 O         1.529352         1.875546         1.790061
 C         2.548628        -0.555639         1.864692
 C         2.458668        -1.146430         0.455408
 H        -0.404683        -0.625402         1.073685
 H        -0.765325         0.556844        -0.119591
 H        -0.193400        -1.118072        -0.724955
 H         4.011815        -0.615682        -1.119819
 H         4.197572         1.064174         1.158620
 H         3.593981         1.977353        -0.229389
 H         1.842773         1.957260         2.704482
 H         3.573613        -0.467032         2.371793
 H         1.815941        -0.950725         2.560241
 H         2.350669        -2.212673         0.229495
