19
Iteration:  2244
 C        -0.107244        -0.025440         0.018254
 C         1.422605        -0.165214         0.032394
 O         2.026999         0.168041        -1.262596
 C         3.367278        -0.235800        -0.524868
 C         3.462253         1.108026         0.462468
 C         2.121477         0.681137         1.192807
 O         1.484343         1.800266         1.862008
 C         2.445237        -0.653304         1.911007
 C         2.455872        -1.183649         0.472841
 H        -0.524795        -0.645673         0.894615
 H        -0.412001         1.018015         0.191197
 H        -0.493413        -0.463944        -0.928822
 H         4.218044        -0.479294        -1.221436
 H         4.331671         1.024548         1.190246
 H         3.323178         2.117382        -0.056162
 H         1.017670         1.340463         2.593175
 H         3.290160        -0.569846         2.640592
 H         1.639001        -1.106496         2.511817
 H         2.426618        -2.256715         0.278470
