19
Iteration:  1079
 C        -0.050509         0.001601        -0.024012
 C         1.478786        -0.065779         0.092054
 O         2.048535         0.170272        -1.161354
 C         3.323620        -0.243518        -0.511730
 C         3.581234         1.004674         0.404248
 C         2.227285         0.710797         1.252847
 O         1.343048         1.828791         1.742549
 C         2.376377        -0.686995         1.968500
 C         2.430848        -1.163870         0.417437
 H        -0.511022        -0.219231         0.949892
 H        -0.514496         0.996100        -0.215135
 H        -0.290827        -0.857873        -0.665368
 H         4.076331        -0.911787        -1.104654
 H         4.446228         0.929428         1.104089
 H         3.374813         2.031142         0.077489
 H         1.040203         1.531581         2.599970
 H         2.960690        -0.962415         2.858354
 H         1.421323        -1.188003         2.203488
 H         2.328736        -2.229927         0.164307
