19
Iteration:  1480
 C        -0.099050        -0.340984        -0.099585
 C         1.368464        -0.082220         0.056466
 O         2.053794         0.249001        -1.243158
 C         3.296641        -0.216343        -0.562726
 C         3.463830         0.951496         0.538111
 C         2.078247         0.745582         1.235797
 O         1.567917         1.873290         1.974726
 C         2.345817        -0.605185         1.902036
 C         2.465306        -1.105231         0.421819
 H        -0.495617        -0.692111         0.888830
 H        -0.572740         0.620597        -0.467108
 H        -0.247997        -1.095467        -1.005885
 H         4.062594        -0.452933        -1.249025
 H         4.239147         0.762297         1.429613
 H         3.710708         2.006499         0.290665
 H         2.202104         2.640376         1.990399
 H         3.221933        -0.788148         2.564595
 H         1.465532        -1.156894         2.255697
 H         2.436399        -2.181299         0.167842
