19
Iteration:  2604
 C        -0.076856        -0.330836         0.047171
 C         1.357611        -0.105289         0.078227
 O         1.968102         0.160469        -1.196584
 C         3.228397        -0.157618        -0.477656
 C         3.481930         1.035358         0.397005
 C         2.209668         0.744567         1.229669
 O         1.650591         1.906401         1.830697
 C         2.397217        -0.588280         1.871587
 C         2.477043        -1.158748         0.486527
 H        -0.481410        -0.506500         1.045958
 H        -0.619058         0.477103        -0.465905
 H        -0.301165        -1.268986        -0.393892
 H         4.035462        -0.407635        -1.172094
 H         4.439255         1.084558         0.919156
 H         3.263583         1.995379        -0.121396
 H         0.704924         1.845587         1.756417
 H         3.344906        -0.647402         2.461081
 H         1.472005        -0.901878         2.372694
 H         2.355488        -2.224372         0.334987
