19
Iteration:   463
 C        -0.072081        -0.251153        -0.203026
 C         1.364047        -0.102279        -0.070686
 O         2.041471         0.328299        -1.223756
 C         3.322573        -0.171316        -0.440163
 C         3.523272         0.845095         0.590954
 C         2.101877         0.786667         1.186879
 O         1.637042         1.797709         1.993869
 C         2.344273        -0.611446         1.959054
 C         2.359849        -1.168441         0.428905
 H        -0.515684        -0.705658         0.632792
 H        -0.635585         0.601502        -0.331677
 H        -0.275720        -0.906861        -1.013359
 H         4.100661        -0.566603        -1.053710
 H         4.270322         0.615391         1.339928
 H         3.768471         1.842541         0.277635
 H         1.294372         2.579272         1.457546
 H         3.218299        -0.547941         2.529149
 H         1.488944        -0.772544         2.602155
 H         2.113753        -2.297047         0.289957
