19
Iteration:     2
 C        -0.076584        -0.098602        -0.097592
 C         1.415034        -0.064505         0.009786
 O         2.137419         0.165107        -1.192452
 C         3.303880        -0.254675        -0.402864
 C         3.487149         0.971485         0.512142
 C         2.114447         0.742600         1.197731
 O         1.447324         1.801862         1.779463
 C         2.371819        -0.617822         1.923293
 C         2.393307        -1.167648         0.487996
 H        -0.542620        -0.361107         0.873376
 H        -0.472764         0.893047        -0.381522
 H        -0.406479        -0.851607        -0.838173
 H         4.141633        -0.586590        -1.018989
 H         4.285262         0.881785         1.239578
 H         3.528255         1.891778        -0.052618
 H         2.041033         2.235185         2.429851
 H         3.266317        -0.698054         2.551559
 H         1.448374        -0.980355         2.462515
 H         2.249833        -2.246603         0.243411
