19
Iteration:  2352charge 0 multiplicity 1
 C        -0.076758        -0.117294        -0.116979
 C         1.377031        -0.149114        -0.008840
 O         2.050804         0.088409        -1.284011
 C         3.259543        -0.251691        -0.502163
 C         3.299556         1.114478         0.448940
 C         2.111594         0.667248         1.244404
 O         1.669726         1.906059         2.001100
 C         2.472201        -0.621684         1.901696
 C         2.466488        -1.137138         0.500110
 H        -0.667915        -0.039638         0.856586
 H        -0.465592         0.691877        -0.687217
 H        -0.495979        -1.065114        -0.501540
 H         4.078916        -0.725493        -1.150312
 H         4.159105         1.301209         1.046170
 H         3.198408         2.120945         0.039227
 H         1.175300         1.464944         2.765004
 H         3.518007        -0.794202         2.242201
 H         1.549418        -0.935914         2.404109
 H         2.518198        -2.205792         0.376171
