19
Iteration:  4878charge 0 multiplicity 1
 C        -0.162275        -0.283784         0.028559
 C         1.345092        -0.133357         0.152700
 O         2.005133         0.003057        -1.280014
 C         3.263630        -0.168732        -0.571725
 C         3.379215         1.065249         0.305970
 C         2.086962         0.786077         1.293387
 O         1.560221         1.869343         1.917730
 C         2.623027        -0.503903         1.939889
 C         2.581989        -1.103903         0.525698
 H        -0.588801        -0.322958         1.036679
 H        -0.574180         0.483202        -0.702909
 H        -0.440486        -1.217348        -0.512391
 H         4.032903        -0.619465        -1.157005
 H         4.266975         1.120088         0.938823
 H         3.108627         1.970696        -0.360856
 H         0.754479         2.207410         1.471542
 H         3.523593        -0.423295         2.462571
 H         1.956894        -1.000164         2.601387
 H         2.512675        -2.268981         0.402144
