19
Iteration:  4575
 C        -0.090206        -0.262850         0.058989
 C         1.393735        -0.182042         0.166701
 O         1.978764         0.040853        -1.256469
 C         3.344206        -0.130842        -0.551007
 C         3.356803         1.076041         0.291896
 C         2.075125         0.724496         1.186271
 O         1.476409         1.901477         1.761436
 C         2.557621        -0.486692         2.005293
 C         2.549756        -1.176723         0.538925
 H        -0.371805        -0.861947         0.983606
 H        -0.467371         0.723047         0.167503
 H        -0.539385        -0.667746        -0.832643
 H         4.186532        -0.314192        -1.119687
 H         4.057398         1.028925         1.088670
 H         3.247899         1.907512        -0.318507
 H         1.634358         1.781337         2.763657
 H         3.517306        -0.434469         2.447339
 H         1.781840        -0.903628         2.644441
 H         2.427862        -2.292634         0.193590
