19
Iteration:   488
 C        -0.127588        -0.159775        -0.115645
 C         1.358336        -0.057027        -0.008351
 O         2.189878         0.207767        -1.228357
 C         3.340643        -0.200531        -0.400972
 C         3.381925         1.053349         0.494055
 C         2.122716         0.745882         1.268152
 O         1.631233         1.842131         1.966108
 C         2.298867        -0.825497         1.847194
 C         2.405697        -1.171623         0.446111
 H        -0.594827        -0.632609         0.766942
 H        -0.652550         0.777470        -0.245990
 H        -0.382053        -0.832607        -0.926882
 H         4.161332        -0.631398        -0.989460
 H         4.228698         1.231551         1.162889
 H         3.227084         2.035498         0.014785
 H         2.068239         2.625500         1.502969
 H         2.917059        -0.894618         2.735261
 H         1.298197        -1.127812         2.087706
 H         2.238018        -2.187755         0.198981
