19
Iteration:  4042
 C        -0.062241        -0.327188         0.058112
 C         1.400257        -0.072788         0.077975
 O         2.017772         0.142223        -1.146404
 C         3.271982        -0.216687        -0.450804
 C         3.410070         1.026506         0.322609
 C         2.109087         0.797350         1.136642
 O         1.528199         1.809764         1.812985
 C         2.527286        -0.556196         1.935604
 C         2.467842        -1.107703         0.535598
 H        -0.543661        -0.224870         1.015860
 H        -0.590319         0.494989        -0.392380
 H        -0.067614        -1.279107        -0.540685
 H         3.968935        -0.580189        -1.199842
 H         4.187873         1.074748         1.064038
 H         3.354199         1.875933        -0.324114
 H         0.823997         2.231728         1.329981
 H         3.444737        -0.345252         2.564332
 H         1.722804        -1.094097         2.513906
 H         2.480230        -2.125374         0.390651
