19
Iteration:  2937
 C        -0.125621        -0.365821         0.021523
 C         1.340489        -0.085308         0.042742
 O         1.977907         0.134876        -1.277464
 C         3.179733        -0.238636        -0.424447
 C         3.484067         1.030157         0.395531
 C         2.171204         0.753026         1.201702
 O         1.478725         1.854296         1.829934
 C         2.586984        -0.486030         1.945857
 C         2.492149        -1.149298         0.532724
 H        -0.619603        -0.425936         1.057107
 H        -0.458907         0.470904        -0.544986
 H        -0.293508        -1.246467        -0.584219
 H         3.958221        -0.598812        -1.041054
 H         4.511574         1.107075         0.865312
 H         3.407418         1.948029        -0.221987
 H         2.019258         2.596658         2.109003
 H         3.554230        -0.329978         2.419255
 H         1.789849        -0.917381         2.646312
 H         2.274506        -2.150560         0.337978
