19
Iteration:  3343
 C        -0.095469        -0.379346         0.136321
 C         1.424082        -0.141768         0.034769
 O         2.029232         0.099887        -1.283588
 C         3.282531        -0.179812        -0.548125
 C         3.418446         1.068609         0.348740
 C         2.185488         0.783029         1.222761
 O         1.526578         1.847776         1.844393
 C         2.379498        -0.519956         1.999576
 C         2.467373        -1.090537         0.510441
 H        -0.424381        -0.743178         1.112982
 H        -0.628620         0.548209        -0.193346
 H        -0.544530        -1.297416        -0.454094
 H         4.091861        -0.512000        -1.187230
 H         4.396227         0.994833         0.889205
 H         3.322333         2.020888        -0.198561
 H         2.061714         2.636864         1.747809
 H         3.168206        -0.677343         2.803312
 H         1.384258        -0.677145         2.384773
 H         2.540689        -2.159915         0.138432
