19
Iteration:  2472charge 0 multiplicity 1
 C        -0.108313        -0.465471        -0.002807
 C         1.362172        -0.055707        -0.047605
 O         1.967986         0.195312        -1.300142
 C         3.206708        -0.232965        -0.488384
 C         3.487256         0.961732         0.456608
 C         2.101019         0.864534         1.207467
 O         1.738863         1.988097         1.978575
 C         2.432780        -0.589753         1.877809
 C         2.479906        -1.123258         0.497256
 H        -0.303711        -1.241579         0.833827
 H        -0.877984         0.281459         0.261195
 H        -0.382823        -0.891288        -0.951363
 H         4.111513        -0.562317        -1.095447
 H         4.358046         0.886536         1.082371
 H         3.587258         1.968960         0.013670
 H         0.796737         1.899556         2.093627
 H         3.229218        -0.707512         2.660404
 H         1.501855        -0.962087         2.406643
 H         2.146794        -2.121934         0.303721
