19
Iteration:  3410
 C         0.024501        -0.160636         0.039633
 C         1.432995        -0.119935         0.108690
 O         1.951480         0.072808        -1.208557
 C         3.307442        -0.198440        -0.517762
 C         3.413450         1.070728         0.270967
 C         2.229316         0.801510         1.113888
 O         1.429985         1.707929         1.953692
 C         2.494514        -0.475137         1.937473
 C         2.444936        -1.201287         0.573334
 H        -0.427603        -0.321282         0.992371
 H        -0.343947         0.802589        -0.457940
 H        -0.375374        -0.989648        -0.703184
 H         3.963188        -0.767217        -1.105686
 H         4.228036         1.054928         1.005236
 H         3.220319         2.005691        -0.298405
 H         0.820950         2.163666         1.280845
 H         3.457366        -0.596662         2.535454
 H         1.725040        -0.387809         2.643213
 H         2.468712        -2.284982         0.349610
