19
Iteration:  2478
 C        -0.166671        -0.457111        -0.014669
 C         1.362108        -0.051531        -0.023883
 O         1.999064         0.165870        -1.323539
 C         3.226137        -0.184069        -0.489736
 C         3.469815         0.971497         0.472765
 C         2.154380         0.883548         1.210330
 O         1.717105         2.005127         2.015926
 C         2.454969        -0.552523         1.844340
 C         2.452298        -1.197349         0.501275
 H        -0.322759        -1.150313         0.777209
 H        -1.095024         0.127254         0.236404
 H        -0.398197        -0.935687        -1.014963
 H         3.992752        -0.746795        -1.011100
 H         4.346082         0.667470         1.144434
 H         3.602667         1.912347        -0.088424
 H         0.785823         1.795873         2.190576
 H         3.295096        -0.577102         2.538112
 H         1.685577        -0.771252         2.590017
 H         2.228147        -2.210707         0.023969
