19
Iteration:  1421
 C        -0.097716        -0.039748        -0.084449
 C         1.382713        -0.104100         0.055817
 O         2.089703         0.143543        -1.231417
 C         3.309481        -0.172123        -0.420795
 C         3.376803         1.011020         0.406922
 C         2.119007         0.700714         1.241621
 O         1.462593         1.772112         1.858069
 C         2.452256        -0.608238         1.934929
 C         2.477571        -1.203638         0.471528
 H        -0.503132        -0.574546         0.797977
 H        -0.440416         1.043371        -0.092067
 H        -0.355459        -0.622760        -1.020711
 H         4.243563        -0.391877        -1.096367
 H         4.234871         1.093927         1.060613
 H         3.309915         1.905325        -0.261613
 H         1.808226         1.771100         2.731021
 H         3.337683        -0.746086         2.555680
 H         1.598295        -1.139203         2.456992
 H         2.688514        -2.217745         0.045146
