19
Iteration:   289
 C        -0.096317        -0.226337        -0.107540
 C         1.410657        -0.052082        -0.025383
 O         2.106981         0.199427        -1.263649
 C         3.273707        -0.183894        -0.441047
 C         3.453787         1.040923         0.474484
 C         2.143527         0.690896         1.200750
 O         1.743624         1.843865         1.966426
 C         2.141687        -0.660569         1.912859
 C         2.484572        -1.143889         0.495923
 H        -0.328991        -0.713422         0.843043
 H        -0.835729         0.581301        -0.208852
 H        -0.356121        -0.969432        -0.892638
 H         4.100643        -0.411008        -1.121574
 H         4.299126         0.966003         1.150006
 H         3.404171         1.960479        -0.077001
 H         0.827652         1.958136         2.200726
 H         2.744423        -0.628902         2.783357
 H         1.122777        -0.972332         2.211308
 H         2.693377        -2.259253         0.218245
