19
Iteration:  3451charge 0 multiplicity 1
 C        -0.183813        -0.311618         0.039441
 C         1.395966        -0.193914        -0.000890
 O         2.035622         0.097582        -1.289893
 C         3.281338        -0.196878        -0.463854
 C         3.355531         1.108081         0.415997
 C         2.187391         0.781153         1.194740
 O         1.580314         1.887838         1.895307
 C         2.502728        -0.550929         1.991191
 C         2.455640        -1.180526         0.499460
 H        -0.341877        -0.358371         1.085234
 H        -0.784648         0.542117        -0.233357
 H        -0.559864        -1.213181        -0.540915
 H         4.202892        -0.298424        -0.982344
 H         4.237024         1.085405         1.088437
 H         3.400750         1.987992        -0.209327
 H         1.479182         2.579456         1.248757
 H         3.520366        -0.647039         2.476387
 H         1.697837        -0.897568         2.604457
 H         2.362085        -2.234851         0.136213
