19
Iteration:   987charge 0 multiplicity 1
 C        -0.170795        -0.400074        -0.322270
 C         1.268776        -0.088164         0.002426
 O         2.061514         0.263476        -1.152509
 C         3.259495        -0.239849        -0.461564
 C         3.479353         0.944360         0.479423
 C         2.147307         0.799093         1.190461
 O         1.800984         1.933858         2.004688
 C         2.343736        -0.528637         1.912114
 C         2.380452        -1.145320         0.556547
 H        -0.635049        -0.967739         0.527310
 H        -0.640597         0.552738        -0.562137
 H        -0.063395        -1.108350        -1.159304
 H         4.060780        -0.543166        -1.000568
 H         4.354308         0.961318         1.103688
 H         3.448986         1.862364        -0.119251
 H         1.065560         1.506502         2.499518
 H         3.282963        -0.634056         2.534691
 H         1.484017        -0.908319         2.506666
 H         2.355850        -2.181604         0.226558
