19
Iteration:   993charge 0 multiplicity 1
 C        -0.076768        -0.386333        -0.325572
 C         1.333610        -0.050591         0.047690
 O         2.029949         0.224912        -1.158232
 C         3.189296        -0.219131        -0.474489
 C         3.517425         0.966650         0.450316
 C         2.169416         0.808989         1.198419
 O         1.766699         1.902986         2.009280
 C         2.309480        -0.547786         1.946858
 C         2.397206        -1.150699         0.562991
 H        -0.559848        -0.886919         0.493359
 H        -0.583334         0.583383        -0.518729
 H        -0.226000        -1.051997        -1.196072
 H         4.096491        -0.680518        -1.163110
 H         4.402949         1.135444         1.132378
 H         3.404167         1.829815        -0.232962
 H         0.935305         1.447103         2.378608
 H         3.218166        -0.665229         2.470618
 H         1.367206        -0.843226         2.431618
 H         2.138505        -2.175567         0.194635
