19
Iteration:  1472charge 0 multiplicity 1
 C        -0.130826        -0.362873        -0.134937
 C         1.410037         0.001184         0.041956
 O         2.062462         0.221532        -1.269272
 C         3.280195        -0.210881        -0.570285
 C         3.467882         0.932372         0.573746
 C         2.075518         0.762949         1.292851
 O         1.526567         1.852053         1.995211
 C         2.379725        -0.566839         1.874468
 C         2.491734        -1.107526         0.437874
 H        -0.684065        -0.788673         0.721348
 H        -0.598827         0.604186        -0.301184
 H        -0.135125        -1.062638        -0.932887
 H         4.024767        -0.684878        -1.189662
 H         4.302304         0.523332         1.135598
 H         3.647087         1.901796         0.073759
 H         2.332867         2.387987         2.075319
 H         3.292365        -0.560787         2.499945
 H         1.594920        -1.031396         2.439987
 H         2.109049        -2.059645         0.149680
