19
Iteration:  3443
 C        -0.229430        -0.268829         0.029608
 C         1.363605        -0.132715        -0.046635
 O         2.037377         0.052452        -1.315755
 C         3.304118        -0.188622        -0.437439
 C         3.417447         1.041145         0.383212
 C         2.152445         0.765446         1.189925
 O         1.539484         1.885213         1.961567
 C         2.506239        -0.547667         1.960013
 C         2.516702        -1.122631         0.512707
 H        -0.336691        -0.403949         1.108585
 H        -0.782841         0.697400        -0.185362
 H        -0.653905        -1.277597        -0.352087
 H         4.112229        -0.676593        -0.978461
 H         4.307328         1.156524         1.010431
 H         3.405318         2.059176        -0.084696
 H         1.252730         2.395088         1.188741
 H         3.582261        -0.587145         2.339187
 H         1.754100        -0.946358         2.588443
 H         2.760403        -2.194450         0.406758
