19
Iteration:  4173
 C        -0.118770        -0.358463         0.083422
 C         1.357141        -0.172475         0.116010
 O         2.033837         0.112477        -1.253315
 C         3.289416        -0.202300        -0.493836
 C         3.458115         1.026297         0.353961
 C         2.133724         0.817423         1.253181
 O         1.464735         1.912408         1.734267
 C         2.496000        -0.451490         2.013641
 C         2.508307        -1.150791         0.425732
 H        -0.323714        -0.887868         1.061536
 H        -0.637824         0.607431         0.001890
 H        -0.625996        -0.950133        -0.729388
 H         4.092298        -0.518790        -1.141360
 H         4.370364         1.009081         0.992934
 H         3.393414         1.854612        -0.342011
 H         1.553903         1.894641         2.678202
 H         3.500436        -0.441122         2.568194
 H         1.690181        -1.090562         2.460694
 H         2.524693        -2.187748         0.192565
