19
Iteration:  4118charge 0 multiplicity 1
 C        -0.070860        -0.265383        -0.006044
 C         1.408569        -0.150730         0.050609
 O         2.003428         0.071063        -1.240138
 C         3.262405        -0.184423        -0.429258
 C         3.378761         1.128352         0.283771
 C         2.137129         0.782144         1.246474
 O         1.450450         1.844257         1.844078
 C         2.505920        -0.572744         1.922671
 C         2.531391        -1.135932         0.582185
 H        -0.329781        -0.597962         1.040357
 H        -0.642355         0.629514        -0.234141
 H        -0.487932        -1.187343        -0.512126
 H         4.002886        -0.674239        -1.060278
 H         4.353037         1.274693         0.764029
 H         3.213121         2.005301        -0.359533
 H         2.027974         2.621962         1.726944
 H         3.344153        -0.949276         2.557783
 H         1.832314        -1.009663         2.648298
 H         2.583649        -2.193465         0.431608
