19
Iteration:  2136
 C        -0.146524        -0.426717         0.002465
 C         1.362628        -0.067521        -0.029685
 O         1.996464         0.349533        -1.277929
 C         3.330475        -0.195537        -0.411169
 C         3.515426         1.020953         0.615103
 C         2.174392         0.742174         1.236338
 O         1.689268         1.881380         1.870893
 C         2.386836        -0.677744         1.856878
 C         2.355903        -1.125129         0.410622
 H        -0.472133        -0.320592         1.079529
 H        -0.582954         0.293223        -0.750362
 H        -0.278847        -1.423512        -0.416713
 H         4.087278        -0.548220        -1.135792
 H         4.353440         0.872338         1.360619
 H         3.538829         1.983892         0.013594
 H         0.768841         2.062764         1.858017
 H         3.250360        -0.901283         2.488521
 H         1.436613        -1.030316         2.263720
 H         2.190883        -2.136385         0.056840
