19
Iteration:  2121
 C        -0.098111        -0.335370        -0.036308
 C         1.383909        -0.016911        -0.007116
 O         2.060157         0.291712        -1.190718
 C         3.223646        -0.122177        -0.487710
 C         3.521688         0.867062         0.540073
 C         2.040544         0.748916         1.191698
 O         1.638782         1.916286         1.920376
 C         2.364455        -0.648770         1.894520
 C         2.460738        -1.168187         0.378697
 H        -0.507506        -0.503960         0.981648
 H        -0.726869         0.367202        -0.379854
 H        -0.239812        -1.354410        -0.456342
 H         4.046339        -0.462552        -1.142165
 H         4.299989         0.653723         1.242330
 H         3.802344         1.837172         0.201387
 H         0.701289         1.892935         1.633489
 H         3.371605        -0.493918         2.313289
 H         1.786260        -1.140351         2.689671
 H         2.529319        -2.224668         0.027735
