19
Iteration:  1647
 C         0.000436        -0.357475        -0.022749
 C         1.443299        -0.060011         0.011617
 O         2.130451         0.362141        -1.198762
 C         3.231731        -0.218442        -0.471426
 C         3.503750         0.939290         0.442112
 C         2.146112         0.773404         1.304778
 O         1.465066         1.888719         1.856525
 C         2.305889        -0.684783         1.859079
 C         2.302996        -1.162912         0.432668
 H        -0.092981        -0.956627         0.918533
 H        -0.718097         0.515315        -0.232680
 H        -0.051054        -0.990293        -0.898698
 H         4.024786        -0.544594        -1.190143
 H         4.450943         0.781800         1.054462
 H         3.667693         1.944990        -0.092149
 H         2.023690         2.225636         2.632460
 H         3.221314        -0.834780         2.439529
 H         1.392256        -0.896368         2.434683
 H         2.341066        -2.216404         0.206625
