19
Iteration:   761
 C        -0.074213        -0.123096        -0.117009
 C         1.427521        -0.113863         0.027008
 O         2.011661         0.171209        -1.267993
 C         3.206121        -0.157241        -0.455123
 C         3.530027         0.919253         0.536795
 C         2.134127         0.745215         1.284641
 O         1.494958         1.807578         1.923264
 C         2.402348        -0.638731         1.984226
 C         2.459536        -1.179383         0.438301
 H        -0.745746        -0.243639         0.706808
 H        -0.246082         0.857256        -0.519647
 H        -0.244480        -0.894145        -0.896238
 H         4.062523        -0.251825        -1.299770
 H         4.459168         0.695768         1.109549
 H         3.649307         1.878013        -0.037986
 H         1.620562         2.589741         1.347280
 H         3.339702        -0.698318         2.549409
 H         1.565474        -1.019892         2.498177
 H         2.407934        -2.223828         0.153440
