19
Iteration:  2079charge 0 multiplicity 1
 C        -0.072092        -0.012459        -0.032486
 C         1.364375        -0.088699         0.045096
 O         2.115246         0.130906        -1.166516
 C         3.314749        -0.158396        -0.378785
 C         3.414577         1.129731         0.372858
 C         2.160623         0.701722         1.225520
 O         1.536779         1.729655         1.852301
 C         2.438979        -0.678046         1.865414
 C         2.386755        -1.208385         0.453526
 H        -0.445728        -0.785619         0.743658
 H        -0.715606         0.839155         0.118791
 H        -0.359543        -0.553568        -0.975599
 H         4.139590        -0.470548        -1.039432
 H         4.440355         1.145845         0.822902
 H         3.281749         2.037441        -0.250723
 H         0.701734         1.589842         2.398531
 H         3.293142        -0.731099         2.555869
 H         1.597063        -1.034843         2.418424
 H         2.551037        -2.251018         0.094194
