19
Iteration:   979
 C        -0.223909        -0.405219        -0.290157
 C         1.303538        -0.124129        -0.027899
 O         2.092029         0.267392        -1.188265
 C         3.285609        -0.227099        -0.380449
 C         3.430424         0.966400         0.481184
 C         2.106582         0.792449         1.256025
 O         1.816657         1.939395         1.978290
 C         2.406630        -0.539390         1.908650
 C         2.339152        -1.145974         0.450997
 H        -0.782390        -0.888732         0.529464
 H        -0.896341         0.405172        -0.667789
 H        -0.114146        -1.096229        -1.218886
 H         4.090565        -0.580600        -1.085518
 H         4.251598         0.708959         1.202819
 H         3.628589         1.929517        -0.014130
 H         1.212625         1.887889         2.722444
 H         3.313846        -0.555947         2.628067
 H         1.563777        -0.901815         2.498784
 H         2.430657        -2.228166         0.457410
