19
Iteration:  3422charge 0 multiplicity 1
 C        -0.102683        -0.192106         0.064908
 C         1.423656        -0.169131         0.101122
 O         2.052108         0.018065        -1.223134
 C         3.264069        -0.260188        -0.527321
 C         3.453673         1.064871         0.328752
 C         2.101219         0.834827         1.113074
 O         1.471558         1.755811         1.990756
 C         2.507819        -0.418840         1.914170
 C         2.505745        -1.157876         0.487698
 H        -0.561076        -0.259768         1.059175
 H        -0.411980         0.830789        -0.324421
 H        -0.464293        -1.030908        -0.598298
 H         4.135142        -0.375866        -1.157156
 H         4.324883         1.049320         1.000519
 H         3.687734         1.914240        -0.351956
 H         0.749348         2.240951         1.564767
 H         3.430435        -0.341432         2.533327
 H         1.663880        -0.872354         2.403332
 H         2.233054        -2.185122         0.277397
