19
Iteration:  2422
 C        -0.109792        -0.155479         0.085067
 C         1.383970        -0.143687         0.060274
 O         2.013781         0.185764        -1.186124
 C         3.289298        -0.202074        -0.482944
 C         3.473678         0.959148         0.428507
 C         2.106930         0.756001         1.284462
 O         1.499131         1.884862         1.739091
 C         2.530971        -0.653637         1.884568
 C         2.457297        -1.123507         0.404679
 H        -0.473201        -0.505221         1.027963
 H        -0.471126         0.923390        -0.123396
 H        -0.578580        -0.820771        -0.656473
 H         4.007375        -0.744841        -1.023394
 H         4.339909         0.997394         1.125819
 H         3.590690         1.946355        -0.030626
 H         0.819218         1.584550         2.414070
 H         3.557859        -0.691324         2.300361
 H         1.759769        -1.121415         2.504646
 H         2.657874        -2.153402         0.103799
