19
Iteration:   608charge 0 multiplicity 1
 C        -0.201030        -0.302314        -0.073275
 C         1.373587        -0.127785        -0.137330
 O         2.161761         0.184157        -1.244257
 C         3.309740        -0.153996        -0.495240
 C         3.442784         0.996278         0.552319
 C         2.147766         0.762198         1.185242
 O         1.738058         1.918367         2.099918
 C         2.274668        -0.590197         1.865067
 C         2.386006        -1.178189         0.433130
 H        -0.698317        -0.661927         0.845389
 H        -0.626224         0.584095        -0.473060
 H        -0.598828        -0.934873        -0.834540
 H         4.314344        -0.550266        -0.922195
 H         4.316909         0.803857         1.203295
 H         3.654856         1.921638        -0.014167
 H         0.802343         1.904395         1.977570
 H         3.018067        -0.784353         2.639448
 H         1.326163        -0.804694         2.277088
 H         2.311467        -2.202821         0.127473
