19
Iteration:   586charge 0 multiplicity 1
 C        -0.110844        -0.069650        -0.086623
 C         1.366671        -0.084212        -0.020206
 O         2.112261         0.171887        -1.268804
 C         3.292821        -0.169516        -0.376315
 C         3.437447         1.051314         0.516028
 C         2.046321         0.637910         1.265299
 O         1.660296         1.845270         1.912593
 C         2.349030        -0.693525         1.887265
 C         2.466427        -1.199238         0.427584
 H        -0.394346        -0.305413         0.948676
 H        -0.488596         0.796728        -0.569056
 H        -0.507135        -0.898808        -0.624180
 H         4.202299        -0.617379        -0.919456
 H         4.385832         1.070844         1.073494
 H         3.316307         1.983484        -0.072899
 H         0.655453         1.892678         1.998307
 H         3.236389        -0.739165         2.521138
 H         1.558520        -1.151084         2.419307
 H         2.513500        -2.201197         0.040437
