19
Iteration:  3893charge 0 multiplicity 1
 C        -0.107530        -0.304520         0.233347
 C         1.400623        -0.144523         0.056566
 O         2.086659         0.074008        -1.193901
 C         3.314352        -0.237148        -0.458157
 C         3.400713         1.089826         0.285601
 C         2.177916         0.849986         1.183847
 O         1.424801         1.849863         1.734687
 C         2.530254        -0.523375         1.873164
 C         2.442978        -1.143111         0.474930
 H        -0.202549        -0.321024         1.365371
 H        -0.488365         0.599103        -0.328228
 H        -0.567213        -1.115157        -0.206092
 H         4.188084        -0.519620        -1.012170
 H         4.285080         1.373690         0.970487
 H         3.373592         1.950110        -0.378664
 H         1.067334         1.575534         2.587838
 H         3.292191        -0.547644         2.589211
 H         1.548718        -0.846122         2.280866
 H         2.414754        -2.196476         0.149979
