19
Iteration:  2782charge 0 multiplicity 1
 C        -0.207554        -0.484027         0.060200
 C         1.362643        -0.151996         0.000252
 O         2.045865         0.106975        -1.328639
 C         3.278254        -0.144652        -0.536832
 C         3.467077         1.056785         0.415677
 C         2.153190         0.792550         1.206760
 O         1.701018         1.947046         2.032743
 C         2.423366        -0.480740         1.917209
 C         2.396943        -1.104037         0.474142
 H        -0.650451        -0.459316         1.005685
 H        -0.710726         0.320047        -0.582753
 H        -0.310010        -1.486779        -0.449668
 H         4.024197        -0.749399        -1.108478
 H         4.302899         0.739983         1.077406
 H         3.510106         1.973071        -0.219793
 H         0.864224         2.269043         1.598618
 H         3.375244        -0.574580         2.494529
 H         1.615323        -0.659189         2.719835
 H         2.554588        -2.256052         0.224127
