19
Iteration:  4900charge 0 multiplicity 1
 C        -0.075162        -0.312990         0.048554
 C         1.376476        -0.211755         0.063836
 O         1.962733         0.087339        -1.178502
 C         3.256096        -0.220397        -0.457910
 C         3.388236         1.191297         0.306968
 C         2.153514         0.829450         1.124959
 O         1.510383         1.753909         1.934490
 C         2.643472        -0.461250         1.869122
 C         2.402129        -1.156429         0.562423
 H        -0.384869        -0.296644         1.121839
 H        -0.556551         0.372342        -0.709840
 H        -0.420086        -1.275787        -0.377856
 H         4.182597        -0.603274        -0.879755
 H         4.322815         1.107208         0.909779
 H         3.277873         2.028012        -0.491125
 H         1.358985         2.562953         1.381596
 H         3.588924        -0.539182         2.300541
 H         1.934620        -0.634554         2.642319
 H         2.389293        -2.300735         0.270272
