19
Iteration:  4217
 C        -0.137565        -0.270762         0.166690
 C         1.393964        -0.191094         0.027871
 O         2.029717         0.108338        -1.253946
 C         3.328723        -0.231316        -0.507149
 C         3.381202         1.063441         0.359356
 C         2.143718         0.744895         1.176608
 O         1.494906         1.925127         1.819347
 C         2.537900        -0.526139         1.923951
 C         2.571020        -1.134889         0.535244
 H        -0.506499        -0.678257         1.163546
 H        -0.569683         0.641393        -0.311515
 H        -0.654207        -0.991961        -0.558794
 H         4.151334        -0.611488        -1.081113
 H         4.345005         1.056884         0.943180
 H         3.150385         1.911142        -0.256720
 H         0.556682         1.809052         1.887935
 H         3.493387        -0.445846         2.585227
 H         1.625635        -0.773561         2.582851
 H         2.399801        -2.119770         0.276832
