19
Iteration:   874charge 0 multiplicity 1
 C        -0.080984         0.068155        -0.025595
 C         1.397922        -0.104025         0.129690
 O         2.070171         0.129382        -1.219182
 C         3.344375        -0.214366        -0.377412
 C         3.357902         1.048269         0.482694
 C         2.094913         0.636705         1.329555
 O         1.458272         1.849589         1.753818
 C         2.548704        -0.740871         1.854085
 C         2.480460        -1.240843         0.431717
 H        -0.615784        -0.232105         0.878488
 H        -0.365796         1.115535        -0.262862
 H        -0.492312        -0.647007        -0.720173
 H         4.251838        -0.416315        -1.055243
 H         4.282723         1.239127         1.074187
 H         3.157646         1.980293        -0.050910
 H         0.656516         1.995205         1.283981
 H         3.557815        -0.771950         2.158798
 H         1.866157        -1.265388         2.551171
 H         2.534100        -2.321535         0.168291
