19
Iteration:   376
 C        -0.087166         0.091942        -0.092923
 C         1.375446        -0.064877         0.011977
 O         2.067408         0.031915        -1.297770
 C         3.387774        -0.212060        -0.462486
 C         3.497998         1.035322         0.543706
 C         2.115462         0.743117         1.219467
 O         1.341986         1.719108         1.951769
 C         2.380755        -0.719319         1.871423
 C         2.550770        -1.152399         0.474604
 H        -0.465186         0.015940         0.899358
 H        -0.216153         1.084468        -0.461401
 H        -0.532929        -0.677250        -0.708814
 H         4.106817        -0.512206        -1.200259
 H         4.241969         0.907731         1.328679
 H         3.673645         1.964001         0.032019
 H         1.931365         2.429683         2.298912
 H         3.196432        -0.709051         2.535624
 H         1.486337        -1.119394         2.348161
 H         2.373863        -2.291648         0.144619
