19
Iteration:  1643
 C        -0.014855        -0.367340        -0.032033
 C         1.448110        -0.057759         0.029353
 O         2.116770         0.359347        -1.211892
 C         3.246974        -0.236148        -0.487889
 C         3.493845         0.968080         0.441931
 C         2.156782         0.800059         1.293874
 O         1.477499         1.859319         1.884100
 C         2.302357        -0.666530         1.843159
 C         2.302908        -1.179275         0.444159
 H        -0.137259        -0.949456         0.884215
 H        -0.644049         0.451741        -0.215441
 H        -0.123328        -0.971807        -0.989772
 H         4.065104        -0.497718        -1.105958
 H         4.407493         0.711913         1.039507
 H         3.830985         1.857460        -0.006045
 H         1.998842         2.279459         2.559331
 H         3.156761        -0.678731         2.599083
 H         1.385467        -0.809982         2.412959
 H         2.316679        -2.234669         0.145761
