19
Iteration:  3487charge 0 multiplicity 1
 C        -0.101946        -0.413467        -0.008914
 C         1.345333        -0.087720         0.037078
 O         1.925379         0.220040        -1.218483
 C         3.252015        -0.225450        -0.495797
 C         3.463184         0.991935         0.338289
 C         2.170311         0.852469         1.250871
 O         1.520888         1.881957         1.823801
 C         2.499999        -0.549586         2.010461
 C         2.546982        -1.183464         0.527507
 H        -0.497084        -0.791778         0.955411
 H        -0.704570         0.431056        -0.491835
 H        -0.249925        -1.356375        -0.615668
 H         4.002311        -0.545666        -1.253120
 H         4.409298         0.908893         0.927487
 H         3.637135         1.906045        -0.305426
 H         2.033236         2.655657         2.069810
 H         3.237010        -0.593654         2.867874
 H         1.524941        -0.842450         2.415699
 H         2.356674        -2.234777         0.302537
