19
Iteration:   847charge 0 multiplicity 1
 C        -0.103762        -0.154773        -0.054901
 C         1.394274        -0.176051         0.026300
 O         2.043253         0.214609        -1.233172
 C         3.323957        -0.232684        -0.499053
 C         3.510029         1.048723         0.418910
 C         2.142767         0.722325         1.241104
 O         1.585909         1.750220         1.919405
 C         2.342488        -0.528875         1.920901
 C         2.445910        -1.127525         0.496204
 H        -0.684197        -0.566750         0.783419
 H        -0.363619         0.874291        -0.244691
 H        -0.443776        -0.810182        -0.877904
 H         4.016103        -0.602424        -1.222397
 H         4.305771         0.944377         1.162854
 H         3.661968         2.043216        -0.025784
 H         0.649721         1.683324         2.064093
 H         3.199455        -0.743568         2.620123
 H         1.402492        -0.900322         2.315908
 H         2.534430        -2.190798         0.323894
