19
Iteration:  2529charge 0 multiplicity 1
 C        -0.072580        -0.130801         0.005291
 C         1.373343        -0.192024         0.097415
 O         2.028366         0.091604        -1.144489
 C         3.251545        -0.169953        -0.576785
 C         3.347685         1.058966         0.340823
 C         2.108928         0.748573         1.255611
 O         1.585975         1.856469         1.845732
 C         2.497819        -0.565463         1.935665
 C         2.539119        -1.224866         0.459667
 H        -0.781179        -0.225575         0.842227
 H        -0.232916         0.924242        -0.528707
 H        -0.499327        -0.807284        -0.744939
 H         4.090244        -0.344659        -1.244946
 H         4.261601         1.178831         0.866499
 H         2.973135         1.840746        -0.283444
 H         1.204302         1.696949         2.761701
 H         3.431100        -0.564330         2.599171
 H         1.606012        -1.072552         2.409300
 H         2.577459        -2.310956         0.363050
