19
Iteration:  1424
 C        -0.132456        -0.065506        -0.104975
 C         1.366371        -0.102382         0.057410
 O         2.109886         0.162348        -1.208492
 C         3.298226        -0.184674        -0.405887
 C         3.406184         1.035277         0.399774
 C         2.139247         0.698391         1.221196
 O         1.470066         1.767127         1.864568
 C         2.462323        -0.607121         1.926061
 C         2.447763        -1.224619         0.468588
 H        -0.515651        -0.567824         0.780417
 H        -0.392210         0.985649        -0.017705
 H        -0.219083        -0.689405        -1.045271
 H         4.156602        -0.319544        -1.022387
 H         4.331229         1.236840         1.045013
 H         3.218744         1.853317        -0.325587
 H         1.852290         1.807011         2.781860
 H         3.320037        -0.640917         2.606261
 H         1.594304        -1.114260         2.395987
 H         2.523572        -2.237380         0.028253
