19
Iteration:   899
 C        -0.084310         0.020824        -0.021499
 C         1.406015        -0.073216         0.056662
 O         2.121401         0.123602        -1.263281
 C         3.278888        -0.228645        -0.434352
 C         3.532500         1.019486         0.503678
 C         2.114317         0.783293         1.167255
 O         1.340880         1.761201         1.839922
 C         2.588638        -0.721895         1.916015
 C         2.409180        -1.204665         0.487472
 H        -0.365490        -0.102299         1.111886
 H        -0.393151         1.071439        -0.302769
 H        -0.745258        -0.715357        -0.490015
 H         4.054967        -0.484599        -1.022795
 H         4.360888         0.875205         1.180663
 H         3.652286         2.000983         0.036750
 H         0.425339         1.800864         1.513930
 H         3.641265        -0.719426         2.300234
 H         1.812958        -1.013518         2.667226
 H         2.224626        -2.236661         0.145362
