19
Iteration:   483
 C        -0.112517        -0.207983        -0.128017
 C         1.333608        -0.063408         0.015099
 O         2.203146         0.228963        -1.209776
 C         3.315780        -0.220502        -0.413086
 C         3.387296         1.039630         0.526995
 C         2.109846         0.723571         1.256163
 O         1.660859         1.837110         1.972714
 C         2.275878        -0.731188         1.858174
 C         2.396752        -1.162455         0.437603
 H        -0.640361        -0.582805         0.754466
 H        -0.635534         0.780461        -0.238304
 H        -0.380323        -0.802225        -1.024814
 H         4.105994        -0.523199        -1.115853
 H         4.270465         1.077389         1.195475
 H         3.306330         1.999344        -0.009698
 H         1.984937         2.488522         1.333800
 H         3.043568        -0.785714         2.664392
 H         1.294846        -1.234824         2.117632
 H         2.359620        -2.225727        -0.036442
