19
Iteration:  1627charge 0 multiplicity 1
 C        -0.137551        -0.344229        -0.097622
 C         1.379625        -0.012310         0.012231
 O         2.056584         0.227983        -1.233243
 C         3.288275        -0.180714        -0.459419
 C         3.579033         0.931778         0.544922
 C         2.137937         0.772204         1.144471
 O         1.515087         1.740944         1.967759
 C         2.328952        -0.518420         1.912695
 C         2.459901        -1.097769         0.425063
 H        -0.439311        -0.972278         0.778010
 H        -0.766039         0.622970        -0.182342
 H        -0.253485        -0.860109        -1.025324
 H         4.079985        -0.567462        -1.206884
 H         4.343531         0.840251         1.323956
 H         3.647401         1.962904         0.029144
 H         2.253011         2.369961         2.210703
 H         3.105193        -0.740511         2.605980
 H         1.319391        -0.862602         2.226618
 H         2.133521        -2.119875         0.173094
