19
Iteration:   159
 C        -0.093897        -0.238201        -0.065260
 C         1.426748        -0.078452        -0.076613
 O         2.116476         0.199488        -1.256186
 C         3.289214        -0.268084        -0.351637
 C         3.553768         0.947204         0.504381
 C         2.164125         0.830692         1.202676
 O         1.483999         1.856322         1.912000
 C         2.350743        -0.555477         1.849734
 C         2.371676        -1.099370         0.440083
 H        -0.409337        -0.594691         0.956783
 H        -0.662880         0.729170        -0.282102
 H        -0.581301        -1.019692        -0.748788
 H         4.012980        -0.719896        -1.019613
 H         4.333771         0.778798         1.295008
 H         3.923638         1.807447        -0.056505
 H         1.181247         1.450165         2.706537
 H         3.197170        -0.943315         2.514581
 H         1.289418        -0.865840         2.260392
 H         2.369012        -2.182320         0.305407
