19
Iteration:  1412
 C        -0.039746        -0.000435        -0.029132
 C         1.435757        -0.128051         0.007043
 O         2.047295         0.093853        -1.267162
 C         3.322019        -0.170525        -0.508513
 C         3.350195         1.008537         0.471787
 C         2.072779         0.708327         1.243185
 O         1.433509         1.785842         1.847774
 C         2.442056        -0.664449         1.936221
 C         2.560483        -1.126169         0.472489
 H        -0.562341        -0.413867         0.833402
 H        -0.392509         1.033943        -0.148464
 H        -0.624771        -0.442715        -0.881989
 H         4.158239        -0.601644        -1.078382
 H         4.218425         0.804920         1.168371
 H         3.461400         2.034884         0.077938
 H         1.653634         1.815343         2.761035
 H         3.386789        -0.769938         2.458341
 H         1.581346        -1.062018         2.540337
 H         2.705918        -2.223149         0.325758
