19
Iteration:  2648charge 0 multiplicity 1
 C        -0.130619        -0.458814        -0.113287
 C         1.348172        -0.111449         0.035523
 O         1.998951         0.153327        -1.171475
 C         3.226550        -0.291255        -0.488075
 C         3.358335         1.074468         0.417917
 C         2.165002         0.833636         1.267599
 O         1.753676         2.010804         1.878376
 C         2.495125        -0.490847         1.885456
 C         2.387346        -1.164335         0.505695
 H        -0.394006        -1.215970         0.598555
 H        -0.843017         0.348939         0.003865
 H        -0.364149        -0.943102        -1.026926
 H         3.991753        -0.660510        -1.181389
 H         4.242221         1.027942         1.044299
 H         3.311485         1.932781        -0.240602
 H         1.300392         1.677285         2.641147
 H         3.429128        -0.600392         2.466051
 H         1.598202        -0.848987         2.434613
 H         2.498291        -2.246987         0.292219
