19
Iteration:  3584charge 0 multiplicity 1
 C        -0.129635        -0.170605         0.128954
 C         1.367871        -0.125431         0.069188
 O         2.048996         0.040135        -1.205739
 C         3.285120        -0.257372        -0.499370
 C         3.376935         1.071937         0.347668
 C         2.107802         0.729022         1.206428
 O         1.450650         1.899078         1.837664
 C         2.639323        -0.518772         1.876290
 C         2.507750        -1.181197         0.505886
 H        -0.685759        -0.418179         1.012088
 H        -0.417380         0.857000        -0.172959
 H        -0.501603        -0.878594        -0.626265
 H         4.114828        -0.527030        -1.204124
 H         4.233454         1.196941         1.039039
 H         3.600159         1.944724        -0.310866
 H         0.533674         1.636719         1.893095
 H         3.674431        -0.345008         2.267173
 H         2.021454        -1.030630         2.575029
 H         2.575257        -2.255767         0.269583
