19
Iteration:  2068charge 0 multiplicity 1
 C        -0.125403        -0.018330        -0.029158
 C         1.421928        -0.102286         0.016552
 O         2.166295         0.102672        -1.224810
 C         3.330561        -0.201428        -0.459133
 C         3.343002         1.081126         0.412254
 C         2.085640         0.699618         1.197855
 O         1.502730         1.777109         1.898616
 C         2.513488        -0.656930         1.892250
 C         2.433406        -1.170229         0.470090
 H        -0.603517        -0.711840         0.754406
 H        -0.308421         1.027859         0.244323
 H        -0.595370        -0.205056        -1.050166
 H         4.237271        -0.481879        -1.017331
 H         4.168946         1.281344         1.145768
 H         3.141553         1.968282        -0.219281
 H         1.019596         1.292967         2.601811
 H         3.441941        -0.859648         2.448333
 H         1.639328        -0.966366         2.426298
 H         2.136290        -2.222536         0.343569
