19
Iteration:  3910charge 0 multiplicity 1
 C        -0.057392        -0.215238         0.234404
 C         1.446215        -0.188007         0.055741
 O         1.977052         0.181029        -1.214738
 C         3.275619        -0.202767        -0.480640
 C         3.469667         1.112192         0.352668
 C         2.143896         0.696729         1.142206
 O         1.408601         1.858308         1.639059
 C         2.439608        -0.537933         1.956400
 C         2.581535        -1.192646         0.540355
 H        -0.427786        -0.500165         1.203838
 H        -0.509421         0.655495        -0.261541
 H        -0.503953        -1.172589        -0.330472
 H         4.013463        -0.580414        -1.241986
 H         4.412713         1.258759         0.804918
 H         3.244656         1.943143        -0.388919
 H         1.289036         1.766428         2.581490
 H         3.426168        -0.672530         2.570135
 H         1.675125        -0.929121         2.626369
 H         2.622272        -2.281428         0.494188
