19
Iteration:  3812charge 0 multiplicity 1
 C        -0.073856        -0.440758        -0.089519
 C         1.381278        -0.201194         0.113121
 O         1.972453         0.124462        -1.229748
 C         3.172460        -0.171431        -0.490622
 C         3.337555         1.016568         0.367892
 C         2.133923         0.822658         1.207935
 O         1.676704         1.996584         1.806301
 C         2.549137        -0.489314         1.962683
 C         2.462840        -1.119085         0.574099
 H        -0.464847        -0.899614         0.801881
 H        -0.710987         0.377040        -0.330159
 H        -0.131148        -1.387544        -0.740711
 H         4.157771        -0.539649        -0.921804
 H         4.249315         1.011131         0.930218
 H         3.012463         1.935741        -0.208142
 H         1.100157         1.772962         2.506292
 H         3.576948        -0.421942         2.454034
 H         1.959718        -0.848603         2.776963
 H         2.311749        -2.154915         0.226502
