19
Iteration:  3350
 C        -0.075585        -0.374392         0.094049
 C         1.407137        -0.197325        -0.011915
 O         1.998879         0.088413        -1.279522
 C         3.225343        -0.140922        -0.515701
 C         3.419474         1.050388         0.398020
 C         2.156444         0.792484         1.214401
 O         1.547165         1.851775         1.828130
 C         2.402788        -0.526651         1.972348
 C         2.518447        -1.122233         0.513279
 H        -0.179447        -0.466638         1.246145
 H        -0.444809         0.629218        -0.058398
 H        -0.570580        -1.147620        -0.446254
 H         4.110242        -0.548398        -1.094710
 H         4.316045         1.089145         1.030791
 H         3.417942         2.025722        -0.095328
 H         1.924793         2.758147         1.762940
 H         3.238532        -0.440819         2.634868
 H         1.476111        -0.814728         2.586807
 H         2.328129        -2.130089         0.146666
