19
Iteration:   284charge 0 multiplicity 1
 C        -0.130432        -0.257471        -0.099872
 C         1.392929        -0.043389        -0.033073
 O         2.135792         0.213676        -1.229470
 C         3.287508        -0.184624        -0.430014
 C         3.451330         1.027073         0.435222
 C         2.107573         0.736490         1.251958
 O         1.759210         1.816143         1.967804
 C         2.177177        -0.628978         1.864768
 C         2.468149        -1.172391         0.498068
 H        -0.478864        -0.767055         0.820113
 H        -0.711684         0.672734        -0.229788
 H        -0.419575        -0.965637        -0.864843
 H         4.244796        -0.502146        -0.927096
 H         4.320776         1.069776         1.131372
 H         3.356877         1.968989        -0.169964
 H         0.771808         1.898432         2.023530
 H         2.842064        -0.752620         2.786124
 H         1.127628        -0.837121         2.097366
 H         2.596591        -2.198899         0.149327
