19
Iteration:  4398
 C        -0.039026        -0.251852         0.125828
 C         1.426584        -0.237887         0.008196
 O         2.019207         0.030439        -1.225050
 C         3.260078        -0.161206        -0.507112
 C         3.318469         1.101313         0.294037
 C         2.133070         0.799242         1.196220
 O         1.417758         1.839307         1.802043
 C         2.551184        -0.478710         1.929905
 C         2.539566        -1.175353         0.581006
 H        -0.309473        -0.586119         1.117341
 H        -0.495454         0.822550         0.165633
 H        -0.598900        -0.936488        -0.622432
 H         4.104307        -0.354471        -1.217894
 H         4.263799         1.287676         0.789646
 H         3.070649         2.081326        -0.308597
 H         1.983654         2.418839         2.401517
 H         3.473001        -0.766758         2.452384
 H         1.765945        -0.901211         2.593299
 H         2.471756        -2.354060         0.325835
