19
Iteration:   398charge 0 multiplicity 1
 C        -0.178404         0.057452        -0.060319
 C         1.383401        -0.210873        -0.064582
 O         2.225957         0.133974        -1.292858
 C         3.329189        -0.154123        -0.406865
 C         3.377160         0.990288         0.563101
 C         2.077530         0.663452         1.214068
 O         1.527487         1.740943         1.967814
 C         2.355805        -0.651563         1.887289
 C         2.451626        -1.174983         0.456948
 H        -0.468246        -0.023676         0.962896
 H        -0.270123         1.055696        -0.366593
 H        -0.716151        -0.688718        -0.594681
 H         4.233208        -0.403687        -0.937286
 H         4.275693         0.989179         1.159888
 H         3.323704         1.956636         0.074287
 H         1.751413         2.548826         1.487467
 H         3.162523        -0.573022         2.551051
 H         1.452276        -1.102593         2.300151
 H         2.651771        -2.225035        -0.037414
