19
Iteration:  3496
 C        -0.166821        -0.472570         0.015293
 C         1.369070        -0.133204         0.035973
 O         2.007734         0.178531        -1.271107
 C         3.199248        -0.127612        -0.535040
 C         3.522627         0.985875         0.405179
 C         2.205294         0.796008         1.228527
 O         1.482165         1.912122         1.823027
 C         2.554473        -0.503691         2.004567
 C         2.423207        -1.163653         0.527947
 H        -0.574734        -0.591347         0.952495
 H        -0.613051         0.472062        -0.276523
 H        -0.346424        -1.270909        -0.781733
 H         3.865166        -0.525952        -1.245678
 H         4.478180         0.841560         0.923045
 H         3.575567         1.949601        -0.097675
 H         2.140222         2.406053         2.332555
 H         3.406575        -0.484526         2.760044
 H         1.637149        -0.774345         2.444219
 H         2.307367        -2.262718         0.436150
