19
Iteration:  4055charge 0 multiplicity 1
 C        -0.037472        -0.312777         0.066724
 C         1.420060        -0.119775         0.158173
 O         2.033901         0.151403        -1.201428
 C         3.263273        -0.267522        -0.531511
 C         3.473729         1.067590         0.327340
 C         2.179876         0.785810         1.238033
 O         1.430238         1.850977         1.862622
 C         2.478912        -0.480848         1.913610
 C         2.452909        -1.153650         0.491862
 H        -0.415152        -0.459349         1.135538
 H        -0.438234         0.456311        -0.678451
 H        -0.423065        -1.229720        -0.331262
 H         4.153895        -0.641507        -1.030074
 H         4.502426         1.176863         0.757112
 H         3.322081         1.886051        -0.334291
 H         0.742350         2.060187         1.163553
 H         3.524106        -0.657814         2.389842
 H         1.594497        -0.883838         2.575097
 H         2.242152        -2.187032         0.282331
