19
Iteration:   206charge 0 multiplicity 1
 C        -0.050298         0.003284        -0.031356
 C         1.418342        -0.169545        -0.017012
 O         2.126410         0.232163        -1.143635
 C         3.286133        -0.233240        -0.382562
 C         3.408527         1.043508         0.417365
 C         2.141393         0.687161         1.208562
 O         1.513370         1.831004         1.782007
 C         2.346507        -0.727665         1.838524
 C         2.469175        -1.219335         0.518199
 H        -0.383671        -0.144732         1.014091
 H        -0.330139         1.015624        -0.377123
 H        -0.585748        -0.739371        -0.658262
 H         4.195890        -0.378212        -0.959151
 H         4.376311         1.168171         1.001003
 H         3.293480         1.978228        -0.188782
 H         0.929834         1.413180         2.489869
 H         3.113386        -0.887180         2.694703
 H         1.357204        -1.043772         2.268472
 H         2.570851        -2.222055         0.347523
