19
Iteration:  1806
 C        -0.089886        -0.363168         0.008504
 C         1.372146        -0.050979        -0.018921
 O         2.148994         0.375142        -1.170634
 C         3.265790        -0.201447        -0.476004
 C         3.513894         0.980804         0.555515
 C         2.139828         0.755135         1.255246
 O         1.527219         1.804490         1.834993
 C         2.320125        -0.640737         1.875876
 C         2.364346        -1.159543         0.365966
 H        -0.281428        -0.725889         1.037216
 H        -0.789399         0.406524        -0.135433
 H        -0.545064        -1.102174        -0.718723
 H         4.043749        -0.493318        -1.172162
 H         4.394287         0.828312         1.240828
 H         3.647755         1.983304         0.178666
 H         2.286239         2.466283         1.848012
 H         3.198850        -0.905220         2.534429
 H         1.470128        -1.188882         2.263193
 H         2.125199        -2.193902        -0.028520
