19
Iteration:  2885charge 0 multiplicity 1
 C        -0.050432        -0.095077         0.274040
 C         1.432036        -0.116182         0.037364
 O         2.004550         0.145511        -1.211643
 C         3.343753        -0.226159        -0.515753
 C         3.393582         1.040204         0.349032
 C         2.225332         0.727778         1.150846
 O         1.334499         1.749615         1.619387
 C         2.475777        -0.562927         1.943302
 C         2.522627        -1.176753         0.516767
 H         0.101587        -0.534543         1.353628
 H        -0.373813         0.931540         0.300202
 H        -0.619760        -0.798943        -0.309087
 H         4.180899        -0.670322        -1.063632
 H         4.350476         1.302453         0.901453
 H         3.027280         1.920262        -0.233982
 H         1.289580         2.167038         2.447430
 H         3.335551        -0.827820         2.643005
 H         1.478036        -0.938549         2.393505
 H         2.693522        -2.187109         0.431248
