19
Iteration:  1696charge 0 multiplicity 1
 C        -0.077314        -0.074686        -0.060220
 C         1.433982        -0.158889        -0.029230
 O         2.031157         0.192898        -1.206029
 C         3.298576        -0.178096        -0.539428
 C         3.525855         1.012069         0.542022
 C         2.093642         0.732515         1.212851
 O         1.391985         1.791579         1.847215
 C         2.430190        -0.689129         1.910772
 C         2.508704        -1.173356         0.480303
 H        -0.279507        -0.018913         1.007347
 H        -0.150137         0.957272        -0.277184
 H        -0.821344        -0.745123        -0.601646
 H         4.093310        -0.431358        -1.241612
 H         4.451187         0.932314         1.159727
 H         3.378903         1.969471         0.033506
 H         1.656375         1.661950         2.755162
 H         3.295500        -0.553890         2.638571
 H         1.541279        -1.145706         2.370889
 H         2.500597        -2.244965         0.155810
