19
Iteration:  2183charge 0 multiplicity 1
 C        -0.099175        -0.114097        -0.089204
 C         1.342963        -0.141044         0.000063
 O         2.038937         0.144008        -1.265320
 C         3.329183        -0.150186        -0.442030
 C         3.377745         0.987776         0.463836
 C         2.154322         0.747264         1.213320
 O         1.552262         1.795741         1.990737
 C         2.488731        -0.564958         1.877175
 C         2.441259        -1.159197         0.405856
 H        -0.461263         0.045104         0.900048
 H        -0.445930         0.733176        -0.861614
 H        -0.509061        -1.024070        -0.600752
 H         4.229243        -0.492605        -0.933649
 H         4.205376         0.689268         1.130818
 H         3.391443         1.981547         0.007119
 H         1.231706         1.378439         2.820163
 H         3.434414        -0.564903         2.436221
 H         1.630190        -1.002937         2.447615
 H         2.420701        -2.262206         0.366805
