19
Iteration:  4252
 C        -0.077751        -0.348728         0.034607
 C         1.397301        -0.149900         0.060407
 O         1.926270         0.047213        -1.215151
 C         3.314698        -0.200581        -0.445461
 C         3.420683         1.098300         0.344116
 C         2.146480         0.843262         1.157743
 O         1.508371         1.789371         1.911020
 C         2.603776        -0.459464         1.942682
 C         2.432313        -1.126051         0.540995
 H        -0.648057        -0.179382         1.010457
 H        -0.436894         0.672186        -0.429978
 H        -0.320040        -1.181748        -0.559960
 H         4.017768        -0.696815        -1.124418
 H         4.453190         1.181416         0.742668
 H         3.297313         1.974114        -0.223130
 H         1.029145         2.099862         1.145861
 H         3.641991        -0.523391         2.478284
 H         1.703828        -0.775778         2.545921
 H         2.461009        -2.063111         0.140534
