19
Iteration:  4974charge 0 multiplicity 1
 C        -0.169851        -0.381486         0.216681
 C         1.393128        -0.103184         0.104156
 O         2.002794         0.174232        -1.186262
 C         3.295819        -0.239883        -0.504450
 C         3.420472         1.092543         0.310098
 C         2.215534         0.719637         1.193412
 O         1.446136         1.892557         1.646234
 C         2.585039        -0.488335         1.912134
 C         2.531190        -1.170441         0.499309
 H        -0.333921        -0.815202         1.170749
 H        -0.698410         0.604790         0.058163
 H        -0.639640        -1.069430        -0.538402
 H         4.010584        -0.397716        -1.236453
 H         4.016375         1.176529         1.141655
 H         3.088896         1.962974        -0.347506
 H         1.291145         1.848579         2.653028
 H         3.506053        -0.464552         2.557785
 H         1.755207        -0.995555         2.445007
 H         2.573019        -2.280477         0.419787
