19
Iteration:  1495
 C        -0.112048        -0.295263        -0.065083
 C         1.407929        -0.158031        -0.057264
 O         2.056798         0.280149        -1.165123
 C         3.270095        -0.047775        -0.404030
 C         3.468828         1.036301         0.537388
 C         2.135124         0.745314         1.213962
 O         1.614647         1.829700         1.906269
 C         2.302612        -0.724439         1.867246
 C         2.442327        -1.212503         0.427594
 H        -0.504752        -0.433135         0.950952
 H        -0.553650         0.655718        -0.349592
 H        -0.378926        -1.154328        -0.582226
 H         4.096143        -0.427414        -1.049878
 H         4.350991         0.843631         1.112027
 H         3.466237         1.895934        -0.162700
 H         1.975735         2.600064         1.371846
 H         3.042159        -0.850921         2.661772
 H         1.347582        -0.973935         2.338494
 H         2.443380        -2.253388         0.090489
