19
Iteration:   418
 C        -0.052390        -0.121861        -0.116308
 C         1.477027        -0.007856        -0.023389
 O         2.125297         0.267798        -1.197918
 C         3.324463        -0.285955        -0.392021
 C         3.459517         1.036250         0.488018
 C         2.110561         0.702852         1.207158
 O         1.542837         1.742290         1.968478
 C         2.335323        -0.658673         1.904461
 C         2.315984        -1.213527         0.438841
 H        -0.519516        -0.284594         0.832111
 H        -0.399006         0.836033        -0.402130
 H        -0.359300        -0.899002        -0.794174
 H         4.206308        -0.638102        -0.953285
 H         4.274097         1.170319         1.206825
 H         3.494588         1.911849        -0.151008
 H         1.166719         2.402718         1.314127
 H         3.233297        -0.935655         2.422921
 H         1.406552        -0.995906         2.382125
 H         2.170965        -2.364370         0.212323
