19
Iteration:  4120charge 0 multiplicity 1
 C        -0.071147        -0.279135         0.000107
 C         1.404755        -0.138570         0.047827
 O         2.007243         0.065540        -1.231467
 C         3.258844        -0.177882        -0.423813
 C         3.384576         1.122677         0.275297
 C         2.152240         0.790312         1.249177
 O         1.445237         1.841620         1.839646
 C         2.505339        -0.584995         1.911068
 C         2.530968        -1.123532         0.585585
 H        -0.362074        -0.671520         1.028342
 H        -0.646417         0.646565        -0.298037
 H        -0.475167        -1.118970        -0.524337
 H         3.947444        -0.698501        -1.061743
 H         4.369444         1.278697         0.750665
 H         3.173547         1.981943        -0.296583
 H         2.055842         2.554365         1.742828
 H         3.359530        -0.916097         2.582717
 H         1.814492        -0.960805         2.679582
 H         2.536492        -2.137081         0.393696
