19
Iteration:  2661charge 0 multiplicity 1
 C        -0.114984        -0.451531        -0.057642
 C         1.325940        -0.107064         0.095757
 O         2.060582         0.135046        -1.201495
 C         3.227227        -0.208009        -0.447513
 C         3.451085         1.088194         0.271832
 C         2.173579         0.810926         1.129838
 O         1.686679         1.898401         1.905833
 C         2.478399        -0.531101         1.963364
 C         2.339218        -1.118882         0.532121
 H        -0.441213        -1.197865         0.606347
 H        -0.746933         0.508624         0.069221
 H        -0.077394        -0.667651        -1.149422
 H         4.063291        -0.600337        -1.067954
 H         4.274962         1.371297         0.934363
 H         3.222557         1.892556        -0.473035
 H         1.334213         1.660648         2.815283
 H         3.400867        -0.658931         2.625205
 H         1.596934        -0.710978         2.703551
 H         1.864105        -2.137876         0.283873
