19
Iteration:  3875
 C        -0.082888        -0.288192         0.131570
 C         1.387797        -0.107682         0.050487
 O         2.046520        -0.038645        -1.349018
 C         3.274155        -0.169722        -0.498676
 C         3.404961         1.096786         0.386553
 C         2.076921         0.805782         1.110678
 O         1.528806         1.895017         1.863364
 C         2.503774        -0.494859         1.948671
 C         2.491072        -1.109562         0.557003
 H        -0.311507        -0.276996         1.212835
 H        -0.757330         0.470082        -0.274166
 H        -0.278815        -1.332437        -0.363465
 H         4.116869        -0.620055        -1.078793
 H         4.319140         1.100930         0.984680
 H         3.333541         2.036047        -0.204499
 H         0.891133         1.444456         2.415234
 H         3.605549        -0.368129         2.227233
 H         1.816910        -0.898696         2.713894
 H         2.395858        -2.264170         0.364622
