19
Iteration:  3029charge 0 multiplicity 1
 C        -0.088548        -0.317237         0.172522
 C         1.451965        -0.072254         0.024356
 O         2.052408         0.111688        -1.216798
 C         3.286043        -0.255429        -0.474629
 C         3.431166         1.069088         0.235215
 C         2.150985         0.770066         1.170790
 O         1.502463         1.787247         1.919792
 C         2.434754        -0.491857         1.938582
 C         2.415882        -1.093731         0.493556
 H        -0.449876        -0.572921         1.119508
 H        -0.569034         0.594005        -0.302184
 H        -0.239314        -1.136682        -0.568749
 H         4.081040        -0.801055        -1.037610
 H         4.276980         1.091939         0.957741
 H         3.319554         1.996601        -0.349477
 H         1.416710         2.426822         1.194708
 H         3.274652        -0.531707         2.733284
 H         1.604101        -0.781745         2.572288
 H         2.426016        -2.193389         0.183740
