19
Iteration:  2964charge 0 multiplicity 1
 C        -0.091316        -0.428643        -0.199112
 C         1.281005        -0.117723         0.066465
 O         1.972269         0.088530        -1.082419
 C         3.178072        -0.240065        -0.466980
 C         3.388169         1.119586         0.272503
 C         2.187044         0.794407         1.230178
 O         1.676342         1.927634         2.002762
 C         2.489918        -0.483459         1.935656
 C         2.460677        -1.193239         0.552880
 H        -0.667095        -0.604373         0.685232
 H        -0.588614         0.239254        -1.005439
 H         0.045766        -1.442621        -0.692552
 H         3.868821        -0.563498        -1.346493
 H         4.333894         1.338946         0.799264
 H         3.316494         1.992894        -0.397482
 H         1.962229         2.754156         1.640724
 H         3.533724        -0.540003         2.425245
 H         1.654471        -0.708648         2.589045
 H         2.441455        -2.354902         0.367097
