19
Iteration:  2850charge 0 multiplicity 1
 C        -0.153237        -0.271057        -0.000848
 C         1.319860        -0.135381         0.103611
 O         1.942900         0.040076        -1.204513
 C         3.268382        -0.267485        -0.456390
 C         3.490887         1.026858         0.403673
 C         2.175998         0.843261         1.192765
 O         1.420515         1.850427         1.839698
 C         2.643765        -0.469401         1.821645
 C         2.502659        -1.132955         0.493724
 H        -0.619698        -0.809301         0.885079
 H        -0.686281         0.669005        -0.047984
 H        -0.387039        -0.866017        -0.908200
 H         4.094592        -0.598172        -1.045796
 H         4.304615         0.978902         1.190322
 H         3.442954         2.032908        -0.086903
 H         1.998552         2.392220         2.352315
 H         3.640371        -0.517706         2.329357
 H         1.839612        -0.716856         2.624392
 H         2.573308        -2.162848         0.313367
