19
Iteration:   145
 C        -0.083508        -0.268614        -0.148157
 C         1.363912        -0.064069         0.041176
 O         2.088908         0.315814        -1.177828
 C         3.344170        -0.255209        -0.470381
 C         3.572365         0.960271         0.450127
 C         2.150882         0.764215         1.176496
 O         1.565532         1.830491         1.871897
 C         2.281888        -0.553931         1.955846
 C         2.379459        -1.215925         0.520607
 H        -0.608446        -0.644761         0.755512
 H        -0.474871         0.710070        -0.424091
 H        -0.142851        -0.963845        -0.990340
 H         4.177106        -0.703431        -1.068833
 H         4.444051         0.958553         1.048105
 H         3.419749         1.814528        -0.184518
 H         1.065372         1.504862         2.686380
 H         3.052938        -0.441238         2.664984
 H         1.342796        -0.854160         2.428784
 H         2.155288        -2.332696         0.142156
