19
Iteration:  1656
 C        -0.009655        -0.330858        -0.026935
 C         1.375395         0.021202        -0.009374
 O         2.113673         0.334003        -1.177192
 C         3.271203        -0.185744        -0.457551
 C         3.539668         0.929569         0.509866
 C         2.136405         0.701921         1.231704
 O         1.469178         1.918098         1.795596
 C         2.344601        -0.697962         1.926819
 C         2.379440        -1.136651         0.403191
 H        -0.379165        -0.821643         0.915640
 H        -0.740373         0.506557        -0.053035
 H        -0.188365        -1.154525        -0.750390
 H         3.952348        -0.673280        -1.112841
 H         4.451813         0.991602         1.178795
 H         3.223301         1.765850        -0.082219
 H         1.943194         2.071031         2.673184
 H         3.283013        -1.142208         2.326657
 H         1.534558        -1.232729         2.414035
 H         2.154836        -2.164452         0.129659
