19
Iteration:  3943
 C        -0.160636        -0.302338         0.127414
 C         1.382028        -0.177945         0.053570
 O         1.969531         0.035681        -1.213600
 C         3.241632        -0.199468        -0.499264
 C         3.529359         1.061027         0.458472
 C         2.113133         0.801627         1.232839
 O         1.398755         1.934274         1.699694
 C         2.585062        -0.513971         1.905651
 C         2.551947        -1.149690         0.499904
 H        -0.641291        -0.717441         1.017233
 H        -0.609433         0.660871        -0.190626
 H        -0.217599        -0.944370        -0.871477
 H         4.035121        -0.466000        -1.228104
 H         4.434863         0.998180         1.043066
 H         3.495908         2.022851        -0.109660
 H         1.683822         2.161187         2.573489
 H         3.699008        -0.518895         2.224101
 H         1.819614        -0.958503         2.544494
 H         2.492645        -2.207984         0.343643
