19
Iteration:  1967
 C        -0.146752        -0.284183         0.020822
 C         1.398448        -0.023489        -0.017319
 O         2.046493         0.242271        -1.266976
 C         3.322904        -0.101368        -0.398209
 C         3.491598         0.907747         0.626095
 C         2.146582         0.741550         1.286292
 O         1.523697         1.799164         1.854447
 C         2.353757        -0.685036         1.784741
 C         2.436606        -1.095493         0.348930
 H        -0.389844        -0.257156         1.117153
 H        -0.704190         0.448977        -0.546658
 H        -0.359188        -1.356485        -0.358456
 H         4.211087        -0.279724        -1.014222
 H         4.403446         0.614785         1.179224
 H         3.589970         1.962561         0.313268
 H         2.146412         2.540624         1.736544
 H         3.074258        -0.820417         2.597476
 H         1.387687        -1.067387         2.202775
 H         2.480618        -2.181327         0.026001
