19
Iteration:  3968charge 0 multiplicity 1
 C        -0.108412        -0.387894         0.014405
 C         1.400844        -0.138611         0.046969
 O         2.074792         0.107105        -1.179020
 C         3.244432        -0.249351        -0.459215
 C         3.374104         1.088081         0.277022
 C         2.130304         0.804923         1.145092
 O         1.484240         1.815878         1.846603
 C         2.524265        -0.463790         1.968217
 C         2.458231        -1.085099         0.558558
 H        -0.394930        -0.832743         1.033147
 H        -0.683246         0.610408         0.020464
 H        -0.356257        -1.009796        -0.829300
 H         4.126996        -0.582028        -0.964788
 H         4.381316         1.209994         0.781246
 H         3.136633         1.879351        -0.422589
 H         2.227901         2.282950         2.282391
 H         3.518899        -0.656164         2.356679
 H         1.589878        -0.625238         2.555945
 H         2.224421        -2.085341         0.363488
