19
Iteration:  1252charge 0 multiplicity 1
 C        -0.070487        -0.074710        -0.006864
 C         1.419448        -0.156056        -0.025587
 O         2.096487         0.180520        -1.259051
 C         3.265479        -0.212273        -0.474277
 C         3.538235         1.020226         0.479687
 C         2.101557         0.740889         1.177006
 O         1.400396         1.715782         1.941400
 C         2.418352        -0.584884         1.928653
 C         2.451468        -1.170159         0.493548
 H        -0.318420        -0.445341         1.020501
 H        -0.326318         1.032380        -0.222979
 H        -0.647148        -0.660922        -0.817138
 H         3.962594        -0.630194        -1.200794
 H         4.195466         0.785218         1.337074
 H         3.747904         1.960535        -0.043019
 H         1.278840         2.454833         1.321209
 H         3.427999        -0.703451         2.514172
 H         1.606486        -0.916759         2.605039
 H         2.635721        -2.199083         0.176575
