19
Iteration:   286charge 0 multiplicity 1
 C        -0.119505        -0.242716        -0.104678
 C         1.403045        -0.045261        -0.028722
 O         2.123967         0.208277        -1.243973
 C         3.275980        -0.185986        -0.433807
 C         3.454400         1.034889         0.448788
 C         2.123384         0.714199         1.233153
 O         1.756167         1.825443         1.966408
 C         2.158674        -0.643618         1.884154
 C         2.475996        -1.154865         0.502118
 H        -0.409374        -0.742720         0.814310
 H        -0.759054         0.599446        -0.217476
 H        -0.395358        -0.953036        -0.851241
 H         4.214967        -0.458050        -1.016110
 H         4.302875         1.026195         1.140001
 H         3.375310         1.964595        -0.137449
 H         0.758648         1.939042         2.105212
 H         2.780964        -0.686959         2.772199
 H         1.135434        -0.881779         2.138682
 H         2.670631        -2.281380         0.154155
