19
Iteration:  4043charge 0 multiplicity 1
 C        -0.049248        -0.329912         0.055422
 C         1.396338        -0.076465         0.088459
 O         2.021738         0.143311        -1.141459
 C         3.269323        -0.224192        -0.460533
 C         3.411427         1.026730         0.316220
 C         2.114408         0.800683         1.142864
 O         1.523547         1.808134         1.815222
 C         2.519276        -0.553522         1.927812
 C         2.458393        -1.100223         0.525605
 H        -0.549438        -0.215879         1.042878
 H        -0.594988         0.525244        -0.402323
 H        -0.063034        -1.271804        -0.513660
 H         4.009208        -0.576072        -1.171755
 H         4.225057         1.088610         1.053447
 H         3.351553         1.867050        -0.324751
 H         0.799044         2.217148         1.304913
 H         3.442141        -0.346757         2.585659
 H         1.733907        -1.128051         2.547137
 H         2.490649        -2.120067         0.423193
