19
Iteration:  4348charge 0 multiplicity 1
 C        -0.024497        -0.379204         0.142822
 C         1.397085        -0.132893         0.074860
 O         1.998797         0.186151        -1.218777
 C         3.159506        -0.249946        -0.492205
 C         3.453479         1.066799         0.330885
 C         2.229480         0.798791         1.169254
 O         1.355897         1.836212         1.715498
 C         2.579802        -0.428893         1.928590
 C         2.486894        -1.244108         0.522437
 H        -0.512523        -0.708915         1.122208
 H        -0.486105         0.571445         0.148927
 H        -0.269582        -0.994112        -0.691696
 H         3.878099        -0.612450        -1.180023
 H         4.372810         1.222466         0.968269
 H         3.380998         2.005450        -0.129143
 H         1.758051         2.097263         2.570258
 H         3.491583        -0.316268         2.589210
 H         1.726214        -0.740923         2.580311
 H         2.601475        -2.269050         0.413920
