19
Iteration:  4048
 C        -0.008993        -0.318847         0.053359
 C         1.382782        -0.098249         0.144215
 O         2.036588         0.148928        -1.141155
 C         3.257164        -0.259342        -0.510542
 C         3.432336         1.033985         0.312094
 C         2.142905         0.799146         1.180109
 O         1.487472         1.817820         1.830948
 C         2.482248        -0.527019         1.912158
 C         2.430983        -1.078386         0.486835
 H        -0.471999        -0.321085         1.072367
 H        -0.518646         0.522578        -0.501280
 H        -0.211899        -1.303867        -0.403586
 H         4.200538        -0.576793        -1.035287
 H         4.375697         1.156420         0.911721
 H         3.350679         1.934177        -0.382139
 H         0.783499         2.104681         1.237545
 H         3.348442        -0.461830         2.539526
 H         1.855796        -1.099509         2.584342
 H         2.474743        -2.255836         0.477036
