19
Iteration:  2256charge 0 multiplicity 1
 C        -0.193488        -0.144548         0.091702
 C         1.367947        -0.100352        -0.061537
 O         1.995153         0.157057        -1.285429
 C         3.394975        -0.143932        -0.381600
 C         3.431858         0.964507         0.509538
 C         2.167486         0.763484         1.212448
 O         1.558939         1.814160         1.824601
 C         2.436934        -0.631255         1.872836
 C         2.528445        -1.152235         0.430885
 H        -0.688168        -0.780824         0.880903
 H        -0.561535         0.918281         0.184459
 H        -0.665901        -0.446174        -0.853086
 H         4.264128        -0.511039        -0.944851
 H         4.353043         0.887714         1.208044
 H         3.624015         1.983186         0.022581
 H         0.819870         1.567993         2.441834
 H         3.337095        -0.881771         2.470500
 H         1.463792        -0.981689         2.219167
 H         2.588285        -2.179863         0.117097
