19
Iteration:  2922
 C        -0.100326        -0.221916         0.141723
 C         1.395124        -0.157575         0.031669
 O         2.014468         0.052800        -1.236921
 C         3.300751        -0.165960        -0.572568
 C         3.421594         1.026974         0.438005
 C         2.154880         0.833586         1.208052
 O         1.396205         1.852361         1.742481
 C         2.533592        -0.543404         1.935119
 C         2.469620        -1.151555         0.504292
 H        -0.269755        -0.317965         1.170176
 H        -0.813061         0.604090        -0.099016
 H        -0.542779        -1.157519        -0.276746
 H         4.124774        -0.575746        -1.215725
 H         4.240037         0.880259         1.109675
 H         3.548420         1.966990        -0.096976
 H         2.034315         2.321642         2.277120
 H         3.497804        -0.634150         2.418758
 H         1.786968        -0.956143         2.554604
 H         2.714946        -2.275491         0.295098
