19
Iteration:  1316charge 0 multiplicity 1
 C        -0.168885        -0.341143        -0.224869
 C         1.282655        -0.129076         0.014700
 O         2.018737         0.156141        -1.253780
 C         3.269107        -0.171766        -0.536523
 C         3.473666         1.043173         0.562890
 C         2.150986         0.751603         1.252339
 O         1.682180         1.901214         1.975139
 C         2.316139        -0.564946         1.977915
 C         2.541904        -1.145311         0.438006
 H        -0.864249        -0.652384         0.590217
 H        -0.763821         0.506495        -0.686241
 H        -0.242216        -1.212092        -0.969206
 H         4.059532        -0.426664        -1.141006
 H         4.245514         0.858258         1.365052
 H         3.492108         2.002324         0.033897
 H         2.323730         2.001344         2.656763
 H         3.149562        -0.520480         2.742076
 H         1.346708        -0.811711         2.407157
 H         2.657625        -2.188440         0.117846
