19
Iteration:   774
 C        -0.074400        -0.235563        -0.181836
 C         1.355936        -0.137950         0.110767
 O         2.007729         0.219802        -1.134596
 C         3.284875        -0.137597        -0.548847
 C         3.497373         0.967796         0.498810
 C         2.156020         0.728188         1.240328
 O         1.566350         1.876132         1.917871
 C         2.331408        -0.657284         1.874506
 C         2.456208        -1.169302         0.491945
 H        -0.698598        -0.458108         0.669553
 H        -0.381638         0.757618        -0.584898
 H        -0.347437        -1.008102        -0.959926
 H         4.156212        -0.699726        -1.192783
 H         4.406822         0.793951         1.160277
 H         3.554286         2.023335         0.125212
 H         2.172780         2.654057         1.787021
 H         3.075872        -0.790518         2.650017
 H         1.382615        -1.088940         2.240689
 H         2.406658        -2.235448         0.224111
