19
Iteration:  1304charge 0 multiplicity 1
 C        -0.163502        -0.367733        -0.249284
 C         1.425870        -0.149683        -0.020433
 O         2.047237         0.197434        -1.203215
 C         3.282082        -0.122854        -0.451661
 C         3.380021         0.988099         0.425706
 C         2.121549         0.773174         1.263544
 O         1.667552         1.882788         2.005852
 C         2.357044        -0.555404         1.911479
 C         2.418138        -1.169230         0.524780
 H        -0.609574        -0.684676         0.704405
 H        -0.433538         0.630976        -0.596480
 H        -0.301900        -1.095642        -1.115090
 H         4.027600        -0.414662        -1.101762
 H         4.404844         0.900668         0.898409
 H         3.347541         2.045643         0.086554
 H         2.396319         2.220230         2.592534
 H         3.170361        -0.688034         2.637626
 H         1.457412        -0.944478         2.391581
 H         2.253960        -2.226243         0.285795
