19
Iteration:  1129charge 0 multiplicity 1
 C        -0.220659        -0.308981        -0.246540
 C         1.373717        -0.050239        -0.066219
 O         2.160690         0.113043        -1.280030
 C         3.285321        -0.204171        -0.374312
 C         3.407135         1.033114         0.469459
 C         2.080342         0.795821         1.275892
 O         1.739615         1.972497         2.029525
 C         2.348056        -0.662481         1.921563
 C         2.346168        -1.158001         0.454851
 H        -0.663828        -0.820685         0.692301
 H        -0.676195         0.707757        -0.490821
 H        -0.348955        -1.044687        -1.114762
 H         4.192141        -0.446177        -0.845942
 H         4.219476         1.061367         1.194460
 H         3.291143         1.815584        -0.286963
 H         2.026235         1.951898         2.939655
 H         3.375540        -0.794656         2.426654
 H         1.505835        -1.131897         2.533006
 H         2.243438        -2.219391         0.215364
