19
Iteration:  3147charge 0 multiplicity 1
 C        -0.116971        -0.467101        -0.025227
 C         1.293552        -0.204840        -0.045126
 O         1.995423         0.067201        -1.308434
 C         3.163833        -0.180083        -0.470444
 C         3.456459         1.049403         0.438876
 C         2.171185         0.878367         1.237580
 O         1.572511         1.913659         1.941955
 C         2.551493        -0.470128         1.935797
 C         2.427738        -1.088278         0.563353
 H        -0.505084        -0.611681         0.991478
 H        -0.551444         0.455820        -0.546170
 H        -0.415145        -1.375850        -0.627477
 H         3.968448        -0.499127        -1.191387
 H         4.443031         0.847517         0.956012
 H         3.490253         1.853462        -0.324284
 H         2.185028         2.684672         2.070644
 H         3.606172        -0.404187         2.400135
 H         1.940242        -0.926884         2.743474
 H         2.380137        -2.144261         0.246817
