19
Iteration:  4534
 C        -0.105724        -0.330330         0.108400
 C         1.411340        -0.162176         0.037501
 O         1.992105         0.058366        -1.211453
 C         3.298343        -0.199738        -0.482446
 C         3.399805         1.101946         0.343879
 C         2.085240         0.858748         1.128621
 O         1.528505         1.860404         1.831311
 C         2.578021        -0.519660         1.919054
 C         2.469062        -1.171104         0.535082
 H        -0.472288        -0.630995         1.185709
 H        -0.512214         0.674050         0.042763
 H        -0.479425        -0.973632        -0.658002
 H         4.136251        -0.530334        -1.134772
 H         4.388002         1.255129         0.989178
 H         3.447740         2.003645        -0.279634
 H         0.626567         1.639458         2.079812
 H         3.572268        -0.321119         2.363230
 H         1.833089        -0.783763         2.636577
 H         2.503097        -2.186478         0.244140
