19
Iteration:  3349charge 0 multiplicity 1
 C        -0.081867        -0.379002         0.096586
 C         1.413335        -0.190368        -0.007766
 O         2.002321         0.090439        -1.281306
 C         3.231040        -0.145870        -0.522360
 C         3.418965         1.051113         0.390694
 C         2.160528         0.790240         1.219370
 O         1.546125         1.849734         1.828581
 C         2.398901        -0.526925         1.978520
 C         2.512684        -1.117215         0.514066
 H        -0.205524        -0.508471         1.229441
 H        -0.453147         0.625749        -0.072920
 H        -0.562550        -1.149335        -0.416589
 H         4.109117        -0.547037        -1.100283
 H         4.320190         1.085493         1.006278
 H         3.411248         2.032713        -0.102131
 H         1.936976         2.764553         1.772162
 H         3.221014        -0.466966         2.663586
 H         1.455278        -0.780184         2.570598
 H         2.351720        -2.109789         0.129417
