19
Iteration:  3282
 C        -0.256943        -0.294426        -0.038548
 C         1.354029        -0.125794         0.133471
 O         2.009168         0.007560        -1.201927
 C         3.243341        -0.154101        -0.537691
 C         3.387288         1.083838         0.429695
 C         2.116066         0.768922         1.165189
 O         1.523251         1.880342         1.827639
 C         2.578306        -0.562853         1.982003
 C         2.621219        -1.151639         0.529421
 H        -0.675256        -0.577334         0.973940
 H        -0.631508         0.776262        -0.119536
 H        -0.536787        -0.932055        -0.860732
 H         4.001432        -0.387928        -1.291504
 H         4.337877         0.993645         0.947921
 H         3.474481         2.072250        -0.085314
 H         2.064955         2.575868         1.495592
 H         3.483130        -0.448978         2.633207
 H         1.848874        -1.103559         2.630869
 H         2.594035        -2.168539         0.176383
