19
Iteration:   783
 C        -0.134445        -0.300423        -0.204448
 C         1.348280        -0.088389         0.053377
 O         2.055279         0.263674        -1.090319
 C         3.295286        -0.200649        -0.470723
 C         3.439200         1.033757         0.464638
 C         2.124313         0.723638         1.229407
 O         1.647594         1.872645         1.891650
 C         2.326041        -0.657261         1.924526
 C         2.450812        -1.168336         0.414521
 H        -0.574978        -0.590955         0.725220
 H        -0.636219         0.600124        -0.483417
 H        -0.271242        -1.166181        -0.882469
 H         4.107717        -0.639408        -1.267660
 H         4.199421         0.852906         1.262666
 H         3.579094         2.030008        -0.021818
 H         2.435137         2.428944         2.128812
 H         3.057188        -0.925549         2.690878
 H         1.334107        -0.860180         2.212206
 H         2.334884        -2.232569         0.354516
