19
Iteration:  4304charge 0 multiplicity 1
 C        -0.148693        -0.366591         0.131032
 C         1.403508        -0.273172         0.027603
 O         1.990168         0.043911        -1.325393
 C         3.253854        -0.171996        -0.509507
 C         3.367976         1.139272         0.479445
 C         2.158647         0.854252         1.198340
 O         1.497555         1.899678         1.819081
 C         2.512099        -0.515247         1.873223
 C         2.543319        -1.129426         0.525929
 H        -0.607874        -0.443480         1.216833
 H        -0.648870         0.476709        -0.346600
 H        -0.332617        -1.337001        -0.357894
 H         4.084328        -0.544069        -1.049297
 H         4.435055         1.248384         0.905679
 H         3.362671         2.026459        -0.143833
 H         2.269609         2.420031         2.129317
 H         3.456599        -0.661858         2.502787
 H         1.776020        -0.796470         2.651970
 H         2.310900        -2.152998         0.342500
