19
Iteration:  4834
 C        -0.114924        -0.366156         0.169895
 C         1.372369        -0.132573         0.047018
 O         2.046522         0.125762        -1.233873
 C         3.278804        -0.184521        -0.472111
 C         3.390897         1.117449         0.353598
 C         2.205944         0.760548         1.130495
 O         1.522569         1.869111         1.732968
 C         2.543510        -0.511978         1.942545
 C         2.417584        -1.135925         0.523919
 H        -0.353485        -0.763584         1.143514
 H        -0.661292         0.594018         0.027305
 H        -0.361580        -1.156511        -0.569685
 H         4.067600        -0.477696        -1.083789
 H         4.268259         1.134395         0.964017
 H         3.124989         2.026507        -0.250360
 H         1.080203         1.647494         2.554830
 H         3.480657        -0.506881         2.409352
 H         1.785145        -0.919539         2.565500
 H         2.342354        -2.272749         0.370847
