19
Iteration:   645charge 0 multiplicity 1
 C        -0.108676        -0.389524        -0.246970
 C         1.343441         0.048620         0.065655
 O         2.149397         0.310314        -1.206399
 C         3.228249        -0.244639        -0.438908
 C         3.448898         0.933634         0.480565
 C         2.156541         0.729248         1.252519
 O         1.719571         1.941136         1.918714
 C         2.379332        -0.634436         1.966403
 C         2.281139        -1.161889         0.447214
 H        -0.491630        -1.113159         0.509361
 H        -0.857708         0.463800        -0.403246
 H         0.284387        -0.963498        -1.125611
 H         4.012938        -0.655442        -1.063831
 H         4.385176         0.711976         1.046112
 H         3.370800         1.949991         0.086533
 H         1.084993         1.625395         2.548413
 H         3.300955        -0.785544         2.579246
 H         1.418115        -0.743928         2.561966
 H         1.857243        -2.089210         0.020481
