19
Iteration:  3472charge 0 multiplicity 1
 C        -0.049019        -0.400432         0.021104
 C         1.426387        -0.089997         0.161037
 O         1.973457         0.165085        -1.133188
 C         3.251883        -0.204819        -0.494970
 C         3.430486         1.032546         0.353919
 C         2.135343         0.736301         1.142578
 O         1.544990         1.886260         1.858473
 C         2.397866        -0.547257         1.875177
 C         2.467480        -1.114169         0.507161
 H        -0.547498        -0.489470         0.949657
 H        -0.532139         0.464170        -0.375881
 H        -0.055797        -1.264881        -0.676764
 H         3.956128        -0.680962        -1.148879
 H         4.338327         1.247169         0.948927
 H         3.265408         1.933524        -0.203163
 H         2.146281         2.596078         1.460800
 H         3.370336        -0.590603         2.392170
 H         1.525262        -0.987699         2.344298
 H         2.512690        -2.213528         0.391340
