19
Iteration:  3908
 C        -0.056249        -0.227766         0.222010
 C         1.436851        -0.198899         0.077170
 O         1.987011         0.181956        -1.218256
 C         3.286912        -0.207680        -0.473244
 C         3.471082         1.111987         0.358212
 C         2.169250         0.717380         1.135066
 O         1.401302         1.864186         1.649328
 C         2.428502        -0.534937         1.931689
 C         2.577004        -1.179320         0.531959
 H        -0.453018        -0.409517         1.239449
 H        -0.550034         0.670915        -0.161036
 H        -0.537040        -1.209360        -0.291661
 H         4.026748        -0.646769        -1.205829
 H         4.433204         1.283746         0.773631
 H         3.137207         1.882743        -0.389646
 H         1.288064         1.683473         2.570817
 H         3.402494        -0.693971         2.519740
 H         1.677495        -0.924914         2.613109
 H         2.605661        -2.357296         0.500011
