19
Iteration:  1982charge 0 multiplicity 1
 C        -0.129615        -0.302586         0.034268
 C         1.346443        -0.065306         0.026438
 O         2.126764         0.265190        -1.255317
 C         3.295946        -0.141858        -0.508273
 C         3.529336         0.998533         0.648936
 C         2.071497         0.717707         1.174742
 O         1.492836         1.903838         1.866494
 C         2.389261        -0.727258         1.878448
 C         2.418595        -1.159779         0.325035
 H        -0.640136        -0.470580         1.018752
 H        -0.706843         0.533296        -0.406358
 H        -0.289767        -1.170336        -0.626374
 H         4.112824        -0.560496        -1.104525
 H         4.273463         0.781419         1.478775
 H         3.834189         1.965988         0.233249
 H         2.258750         2.362995         2.338176
 H         3.353470        -0.827499         2.404289
 H         1.642043        -1.212551         2.472933
 H         2.191275        -2.151579        -0.077040
