19
Iteration:   727charge 0 multiplicity 1
 C        -0.117518         0.062092         0.089555
 C         1.370411        -0.063738        -0.004542
 O         2.259410         0.166488        -1.212881
 C         3.332461        -0.290922        -0.317205
 C         3.506419         1.069345         0.412925
 C         2.132839         0.744462         1.136059
 O         1.409075         1.662338         1.920408
 C         2.413141        -0.615648         1.849345
 C         2.366599        -1.234976         0.390323
 H        -0.577387        -0.063419         1.078278
 H        -0.376870         0.990200        -0.358938
 H        -0.616756        -0.610142        -0.594356
 H         4.194859        -0.567726        -1.003890
 H         4.367810         1.293123         1.025047
 H         3.540142         1.670882        -0.515619
 H         0.441335         1.703113         1.663907
 H         3.407974        -0.810268         2.279408
 H         1.666089        -0.840136         2.570916
 H         2.218362        -2.299308         0.333398
