19
Iteration:  4521
 C        -0.123963        -0.305736         0.113532
 C         1.328865        -0.084239         0.053765
 O         2.086286         0.051433        -1.264783
 C         3.255817        -0.216993        -0.536248
 C         3.398497         1.060851         0.346637
 C         2.098102         0.709656         1.161226
 O         1.528740         1.894213         1.872272
 C         2.564285        -0.452024         1.932029
 C         2.538573        -1.086669         0.521217
 H        -0.284520        -0.716866         1.194486
 H        -0.831698         0.458776        -0.129643
 H        -0.381914        -1.219291        -0.421129
 H         3.984312        -0.545877        -1.185530
 H         4.261996         1.021847         1.077603
 H         3.296671         1.948214        -0.232293
 H         0.525530         1.846108         1.840675
 H         3.492300        -0.398714         2.430141
 H         2.044124        -1.016472         2.605403
 H         2.342162        -2.220329         0.460981
