19
Iteration:  2384
 C        -0.098896         0.012274         0.005871
 C         1.374584        -0.157693         0.012139
 O         2.045796         0.072297        -1.232261
 C         3.270300        -0.244970        -0.447298
 C         3.464860         1.136247         0.318991
 C         2.245077         0.732352         1.171567
 O         1.452485         1.669724         1.941412
 C         2.464285        -0.564444         1.893453
 C         2.459057        -1.097177         0.506103
 H        -0.442237         0.164691         1.074141
 H        -0.364859         0.897979        -0.494854
 H        -0.553677        -0.863474        -0.493091
 H         4.130794        -0.787384        -0.969796
 H         4.425863         1.146748         0.782173
 H         3.124030         1.995361        -0.263359
 H         0.956797         1.291592         2.658491
 H         3.351903        -0.772070         2.515242
 H         1.675441        -0.828032         2.596805
 H         2.578960        -2.140661         0.186194
