19
Iteration:  1361
 C        -0.033378        -0.178747         0.027534
 C         1.445939        -0.039298         0.044088
 O         2.176408         0.332165        -1.236270
 C         3.270300        -0.291629        -0.460176
 C         3.489073         1.002569         0.457618
 C         2.097927         0.731372         1.216595
 O         1.422751         1.768364         1.757986
 C         2.427690        -0.603815         1.993205
 C         2.360489        -1.218378         0.404837
 H        -0.439400        -0.082447         1.071184
 H        -0.643834         0.744599        -0.282145
 H        -0.399593        -1.174490        -0.367078
 H         3.994918        -0.641927        -1.138686
 H         4.346671         1.322748         1.105621
 H         3.242351         1.755783        -0.269900
 H         1.420895         1.576462         2.691253
 H         3.423225        -0.666712         2.542896
 H         1.605328        -1.205787         2.323718
 H         2.175717        -2.274802         0.234509
