19
Iteration:  1827
 C        -0.076842        -0.285638         0.096624
 C         1.349231         0.005401        -0.039343
 O         2.119161         0.272760        -1.347536
 C         3.298914        -0.166325        -0.435824
 C         3.510506         0.855748         0.596257
 C         2.048942         0.775603         1.210885
 O         1.484284         1.838488         1.948184
 C         2.355223        -0.684449         1.805066
 C         2.458236        -1.141101         0.398053
 H        -0.392630        -0.871785         0.962695
 H        -0.720989         0.501578        -0.073488
 H        -0.347477        -0.798615        -0.891929
 H         4.248609        -0.396856        -0.904245
 H         4.271338         0.756065         1.384349
 H         3.869733         1.719229         0.068602
 H         1.886987         2.676799         1.856283
 H         3.285241        -0.611192         2.369076
 H         1.716473        -1.125793         2.521352
 H         2.197345        -2.155719        -0.014824
