19
Iteration:  4271
 C        -0.106607        -0.303011         0.017697
 C         1.379337        -0.168675         0.104651
 O         2.024351         0.086227        -1.200491
 C         3.209066        -0.216185        -0.533981
 C         3.391125         1.128768         0.272048
 C         2.174586         0.818657         1.194234
 O         1.489157         1.804488         1.908979
 C         2.534356        -0.527817         1.968239
 C         2.560070        -1.149598         0.567865
 H        -0.614898        -0.336173         1.061245
 H        -0.721324         0.366340        -0.604511
 H        -0.264615        -1.326091        -0.478374
 H         4.038521        -0.535476        -1.120087
 H         4.402023         1.218389         0.860019
 H         3.172246         1.900399        -0.481034
 H         1.591068         2.633015         1.456275
 H         3.557447        -0.411717         2.415997
 H         1.563584        -0.743048         2.470000
 H         2.362100        -2.227404         0.474735
