19
Iteration:  1142
 C        -0.052089        -0.312559        -0.284444
 C         1.288105        -0.160801         0.004758
 O         2.098143         0.117317        -1.219673
 C         3.245385        -0.207121        -0.411723
 C         3.416942         1.088521         0.458762
 C         2.230804         0.811053         1.340081
 O         1.719154         1.950143         1.996992
 C         2.292429        -0.619198         1.866689
 C         2.333886        -1.144610         0.459321
 H        -0.620685        -0.674159         0.627653
 H        -0.652961         0.629179        -0.524465
 H        -0.177418        -1.025413        -1.184600
 H         4.002945        -0.656429        -0.978174
 H         4.452489         1.119251         0.825463
 H         3.374885         2.082563         0.022695
 H         1.995704         1.761852         2.935401
 H         3.019874        -0.799788         2.786103
 H         1.313120        -1.029329         2.222529
 H         2.161280        -2.163449         0.103578
