19
Iteration:  3161charge 0 multiplicity 1
 C        -0.138258        -0.449904        -0.059701
 C         1.375609        -0.228468         0.052919
 O         1.950187         0.111991        -1.127852
 C         3.294446        -0.130520        -0.490420
 C         3.383778         1.090836         0.346187
 C         2.154026         0.804935         1.247046
 O         1.608477         1.985365         1.866571
 C         2.519144        -0.586255         1.914430
 C         2.414444        -1.169709         0.508889
 H        -0.554189        -0.395012         0.903373
 H        -0.660812         0.398207        -0.567121
 H        -0.412177        -1.395522        -0.591039
 H         4.121955        -0.367320        -1.134001
 H         4.317513         1.160063         0.928503
 H         3.320793         2.087175        -0.120575
 H         2.203816         2.711162         1.614138
 H         3.551155        -0.792471         2.391068
 H         1.690026        -0.869072         2.531263
 H         2.444590        -2.285480         0.469633
