19
Iteration:   593
 C        -0.189906        -0.152581        -0.091858
 C         1.334900        -0.157818        -0.031994
 O         2.157712         0.183549        -1.292262
 C         3.349184        -0.184832        -0.394846
 C         3.449736         1.026806         0.498254
 C         2.056259         0.734376         1.285858
 O         1.703865         1.831004         1.950392
 C         2.318035        -0.673780         1.873061
 C         2.445176        -1.119351         0.436493
 H        -0.354085        -0.325571         0.989358
 H        -0.438793         0.856653        -0.491850
 H        -0.653019        -0.972172        -0.679601
 H         4.082072        -0.443322        -1.069331
 H         4.263518         1.045942         1.212161
 H         3.335140         1.995365         0.031132
 H         0.757913         2.009048         1.974652
 H         3.176187        -0.844235         2.522909
 H         1.447928        -1.208726         2.364115
 H         2.455120        -2.237854         0.188166
