19
Iteration:    43charge 0 multiplicity 1
 C        -0.113370        -0.081357        -0.047456
 C         1.376313        -0.142903         0.033203
 O         2.200064         0.161331        -1.149442
 C         3.301079        -0.222443        -0.457499
 C         3.494483         1.003526         0.463945
 C         2.206890         0.737695         1.284971
 O         1.433585         1.916366         1.716166
 C         2.330712        -0.711610         1.917055
 C         2.430227        -1.195097         0.469527
 H        -0.410435        -0.141068         0.974245
 H        -0.375530         0.897796        -0.406077
 H        -0.588953        -0.827673        -0.651870
 H         4.099262        -0.535192        -1.120525
 H         4.415765         0.958573         1.083717
 H         3.620243         1.930073        -0.113973
 H         1.111077         1.813849         2.608019
 H         3.025718        -0.978991         2.705849
 H         1.403093        -1.051796         2.180467
 H         2.256373        -2.179746         0.174892
