19
Iteration:  2419charge 0 multiplicity 1
 C        -0.108036        -0.121825         0.088060
 C         1.379691        -0.147091         0.061130
 O         2.029580         0.169120        -1.179818
 C         3.276218        -0.201804        -0.490950
 C         3.479903         0.938926         0.424500
 C         2.097474         0.751736         1.259663
 O         1.470561         1.878393         1.764627
 C         2.538780        -0.637868         1.891017
 C         2.470337        -1.126878         0.391282
 H        -0.444017        -0.524436         1.069768
 H        -0.397364         0.914421        -0.199828
 H        -0.530473        -0.816916        -0.609468
 H         4.086278        -0.735103        -1.002678
 H         4.328126         0.884023         1.068130
 H         3.534143         1.956465         0.048150
 H         0.837605         1.612072         2.421918
 H         3.597290        -0.566220         2.206937
 H         1.802656        -1.037917         2.569526
 H         2.574247        -2.124424         0.040460
