19
Iteration:  2110charge 0 multiplicity 1
 C        -0.100158        -0.284239        -0.030456
 C         1.378082        -0.086573         0.057050
 O         2.075732         0.286692        -1.198975
 C         3.292658        -0.152319        -0.568655
 C         3.474331         0.916104         0.505134
 C         2.092583         0.716240         1.257589
 O         1.566387         1.880195         1.896175
 C         2.459167        -0.603062         1.887807
 C         2.404987        -1.150755         0.447369
 H        -0.328201        -0.560112         1.000453
 H        -0.578943         0.522495        -0.408636
 H        -0.280388        -1.070846        -0.801258
 H         4.136713        -0.401095        -1.245239
 H         4.220200         0.444038         1.111675
 H         3.727700         1.875528         0.127577
 H         0.657848         2.094878         1.855855
 H         3.306177        -0.683655         2.595450
 H         1.561423        -1.134456         2.241145
 H         2.293783        -2.230439         0.172464
