19
Iteration:  3293
 C        -0.169478        -0.338182         0.005187
 C         1.334045        -0.154623         0.083228
 O         2.032120         0.086007        -1.324318
 C         3.222455        -0.118157        -0.568298
 C         3.424489         1.004937         0.435612
 C         2.091614         0.780576         1.241292
 O         1.554386         1.877647         1.830633
 C         2.586366        -0.508233         1.946893
 C         2.496688        -1.168856         0.616051
 H        -0.607979        -0.835994         0.920011
 H        -0.790286         0.570070        -0.234523
 H        -0.498992        -1.031618        -0.751953
 H         4.113195        -0.373383        -1.157521
 H         4.259151         0.869358         1.117332
 H         3.324650         1.993798        -0.063991
 H         2.068659         2.686992         1.783627
 H         3.599112        -0.269480         2.328705
 H         1.920988        -0.977714         2.705302
 H         2.394916        -2.242585         0.600096
