19
Iteration:  2386charge 0 multiplicity 1
 C        -0.100939         0.011104         0.012959
 C         1.375669        -0.153143         0.010843
 O         2.039005         0.078399        -1.243050
 C         3.279672        -0.250673        -0.472878
 C         3.469807         1.128551         0.330452
 C         2.241161         0.750838         1.176948
 O         1.446913         1.664602         1.932151
 C         2.475372        -0.565646         1.890046
 C         2.452948        -1.107327         0.519401
 H        -0.404010         0.130917         1.092588
 H        -0.364859         0.936703        -0.523434
 H        -0.536758        -0.842043        -0.478018
 H         4.112569        -0.781239        -0.966259
 H         4.384053         1.140344         0.887204
 H         3.140984         1.987424        -0.249476
 H         0.917674         1.292939         2.675288
 H         3.370782        -0.778778         2.520348
 H         1.692101        -0.826452         2.593416
 H         2.594847        -2.136235         0.275799
