19
Iteration:  3593charge 0 multiplicity 1
 C        -0.139254        -0.220673         0.042491
 C         1.371906        -0.159937         0.049233
 O         2.009159         0.119219        -1.183240
 C         3.303617        -0.204620        -0.497889
 C         3.463480         1.040047         0.298395
 C         2.136444         0.723200         1.217024
 O         1.457150         1.910987         1.820546
 C         2.664429        -0.557776         1.978506
 C         2.415623        -1.179065         0.525573
 H        -0.243556        -0.400926         1.064183
 H        -0.627204         0.705510        -0.159894
 H        -0.534750        -0.992165        -0.679257
 H         4.127668        -0.421780        -1.131327
 H         4.399314         1.116430         0.845733
 H         3.127637         1.914167        -0.286398
 H         0.520606         1.718852         1.813805
 H         3.706480        -0.398796         2.322498
 H         2.086741        -0.952255         2.764333
 H         2.386897        -2.285304         0.361400
