19
Iteration:  4939charge 0 multiplicity 1
 C        -0.031904        -0.319191         0.153835
 C         1.430513        -0.163686         0.085939
 O         1.940993         0.002925        -1.280287
 C         3.266486        -0.153633        -0.562165
 C         3.350306         1.084534         0.371075
 C         2.143584         0.797161         1.231869
 O         1.417454         1.889647         1.791257
 C         2.539044        -0.493622         1.914875
 C         2.572591        -1.145695         0.475138
 H        -0.282824        -0.318920         1.184455
 H        -0.617747         0.537033        -0.152562
 H        -0.388537        -1.276084        -0.320877
 H         3.992480        -0.578296        -1.279287
 H         4.230443         1.095508         0.974812
 H         3.499250         2.047790        -0.040009
 H         1.992070         2.373022         2.467063
 H         3.468847        -0.504428         2.606299
 H         1.657213        -0.982549         2.427822
 H         2.462861        -2.167108         0.370734
