19
Iteration:  1846
 C        -0.077668        -0.183979        -0.043852
 C         1.401581        -0.099002        -0.047934
 O         2.111257         0.198777        -1.216317
 C         3.306005        -0.166638        -0.527147
 C         3.479950         1.056556         0.535445
 C         2.185900         0.681181         1.253447
 O         1.479704         1.751754         1.975673
 C         2.376564        -0.654990         1.875498
 C         2.360932        -1.121436         0.400440
 H        -0.223775        -0.699157         0.897529
 H        -0.510238         0.845554         0.104869
 H        -0.524646        -0.729396        -0.905895
 H         4.098850        -0.666598        -1.123466
 H         4.355628         0.929173         1.166415
 H         3.503382         2.078066         0.080188
 H         1.590955         2.627356         1.615034
 H         3.081816        -0.903754         2.625604
 H         1.386195        -0.854968         2.361665
 H         2.393471        -2.198102         0.150950
