19
Iteration:  2279charge 0 multiplicity 1
 C        -0.065671        -0.316037         0.095336
 C         1.381640        -0.076661        -0.006020
 O         2.107798         0.251999        -1.221644
 C         3.309093        -0.169482        -0.573225
 C         3.465100         1.000457         0.536833
 C         2.123127         0.759999         1.192685
 O         1.646140         1.922144         1.852215
 C         2.351912        -0.686246         1.893132
 C         2.341143        -1.192160         0.434059
 H        -0.360747        -1.047676         0.870814
 H        -0.778660         0.577532         0.180848
 H        -0.449507        -0.778070        -0.801142
 H         4.079262        -0.562012        -1.214209
 H         4.376511         0.859923         1.257494
 H         3.583362         2.103004         0.271124
 H         0.697257         1.956668         2.056819
 H         3.298491        -0.649778         2.437775
 H         1.458288        -1.095228         2.355993
 H         2.172780        -2.199894         0.089480
