19
Iteration:    79charge 0 multiplicity 1
 C        -0.093671        -0.200555        -0.141940
 C         1.432331        -0.056697        -0.076096
 O         2.188451         0.135995        -1.297730
 C         3.287134        -0.261596        -0.406345
 C         3.440386         0.989340         0.484266
 C         2.102498         0.795741         1.203496
 O         1.626408         1.799599         1.981229
 C         2.345865        -0.513407         1.928045
 C         2.335114        -1.127772         0.518783
 H        -0.393221        -0.397088         0.921224
 H        -0.617514         0.742856        -0.355382
 H        -0.536997        -1.005468        -0.756915
 H         4.155221        -0.745523        -0.892260
 H         4.274369         0.862682         1.125935
 H         3.415241         1.879761        -0.147448
 H         0.703031         1.618163         2.078425
 H         3.151168        -0.562631         2.640310
 H         1.425312        -0.805517         2.484581
 H         2.208891        -2.272771         0.312198
