19
Iteration:   788
 C        -0.170345        -0.347379        -0.180337
 C         1.374231        -0.066377         0.007033
 O         2.090512         0.296081        -1.132211
 C         3.274664        -0.225853        -0.404292
 C         3.431739         1.027922         0.465414
 C         2.105177         0.745441         1.233808
 O         1.687557         1.864742         1.879588
 C         2.333023        -0.644700         1.932069
 C         2.416799        -1.168246         0.423906
 H        -0.546658        -0.661954         0.839576
 H        -0.789841         0.537513        -0.552016
 H        -0.193019        -1.144105        -0.943534
 H         3.995154        -0.426093        -1.180139
 H         4.208184         0.966196         1.254164
 H         3.486703         1.920724        -0.161398
 H         2.499221         2.220317         2.306067
 H         3.095290        -0.892458         2.693642
 H         1.280952        -0.892686         2.346975
 H         2.338836        -2.262709         0.181937
