19
Iteration:   946
 C        -0.068529        -0.249809        -0.095452
 C         1.407918        -0.075621        -0.035803
 O         2.088646         0.145891        -1.233004
 C         3.300065        -0.156529        -0.417713
 C         3.414971         1.002207         0.479924
 C         2.112954         0.781183         1.264038
 O         1.694714         1.986726         1.927569
 C         2.294321        -0.730238         1.897290
 C         2.356289        -1.159191         0.429371
 H        -0.604672        -0.620272         0.798082
 H        -0.647966         0.531109        -0.634571
 H        -0.173803        -1.202656        -0.755328
 H         4.152030        -0.482487        -1.102939
 H         4.350726         0.938931         1.097421
 H         3.452976         1.996093        -0.024494
 H         1.110626         1.729417         2.628550
 H         3.260207        -0.855263         2.508966
 H         1.362666        -1.078749         2.332732
 H         2.400041        -2.230335         0.250222
