19
Iteration:  3431
 C        -0.153483        -0.220122         0.098896
 C         1.316483        -0.135798        -0.018073
 O         2.073193         0.007273        -1.265368
 C         3.288314        -0.238464        -0.495624
 C         3.510750         1.057933         0.364326
 C         2.052136         0.804220         1.225356
 O         1.504806         1.804155         1.968050
 C         2.527911        -0.476939         1.857401
 C         2.532997        -1.096634         0.530089
 H        -0.491445        -0.272549         1.099208
 H        -0.637148         0.671963        -0.385439
 H        -0.590702        -1.012979        -0.665631
 H         4.062462        -0.633700        -1.129462
 H         4.403977         0.983428         0.997988
 H         3.417314         1.895450        -0.346357
 H         0.852766         2.367566         1.548520
 H         3.421123        -0.339592         2.554019
 H         1.804153        -0.995324         2.423298
 H         2.616268        -2.202759         0.388470
