19
Iteration:  3072charge 0 multiplicity 1
 C        -0.118138        -0.117326         0.159724
 C         1.316947        -0.213837         0.206120
 O         2.035384         0.045041        -1.162259
 C         3.281792        -0.141155        -0.458289
 C         3.452692         1.041677         0.418082
 C         2.058399         0.731754         1.150770
 O         1.375891         1.820342         1.655632
 C         2.569789        -0.580940         1.895165
 C         2.588425        -1.136830         0.420603
 H        -0.394614        -0.401761         1.152703
 H        -0.408619         0.981653         0.157169
 H        -0.645248        -0.774289        -0.574936
 H         4.054703        -0.596196        -1.123937
 H         4.393730         0.773058         1.003430
 H         3.509277         2.046524        -0.077951
 H         1.826665         2.589886         1.348878
 H         3.548537        -0.364613         2.481646
 H         2.105577        -1.139107         2.687012
 H         2.623939        -2.189170         0.014679
