19
Iteration:  3378
 C        -0.227254        -0.210260         0.088282
 C         1.341911        -0.143845         0.129901
 O         2.075863         0.073048        -1.202344
 C         3.335480        -0.214290        -0.489992
 C         3.373524         1.037662         0.369964
 C         2.117141         0.750173         1.199347
 O         1.446198         1.853805         1.826870
 C         2.634929        -0.579000         1.904333
 C         2.535025        -1.166222         0.474939
 H        -0.642973        -0.231290         1.062240
 H        -0.590254         0.802503        -0.280427
 H        -0.551593        -0.984580        -0.671935
 H         4.164919        -0.601857        -1.036045
 H         4.162006         1.124099         1.128986
 H         3.349479         1.997481        -0.204861
 H         1.426678         2.638955         1.273271
 H         3.644032        -0.514983         2.412265
 H         1.857140        -0.783892         2.600941
 H         2.502479        -2.195856         0.077533
