19
Iteration:  1682charge 0 multiplicity 1
 C        -0.145298        -0.145766         0.032855
 C         1.347928        -0.182282         0.013817
 O         2.118421         0.232402        -1.209310
 C         3.283709        -0.064706        -0.415874
 C         3.465292         0.983791         0.568675
 C         2.146558         0.684867         1.219935
 O         1.487259         1.839588         1.755671
 C         2.425408        -0.648888         1.841187
 C         2.458366        -1.205197         0.387005
 H        -0.706468        -0.381560         0.930922
 H        -0.546783         0.830915        -0.352345
 H        -0.445518        -0.921116        -0.677576
 H         4.142966        -0.402096        -1.073100
 H         4.263911         0.691344         1.256622
 H         3.622469         2.025365         0.162570
 H         1.646365         1.951851         2.745114
 H         3.334447        -0.901878         2.320704
 H         1.592494        -1.049320         2.446817
 H         2.625412        -2.272345         0.190638
