19
Iteration:  2262
 C        -0.214368        -0.190601         0.081761
 C         1.353596        -0.087379        -0.036518
 O         2.033363         0.152880        -1.281244
 C         3.307544        -0.121554        -0.353181
 C         3.483718         0.961028         0.546214
 C         2.147054         0.756848         1.213297
 O         1.601658         1.844780         1.822004
 C         2.413040        -0.619442         1.840425
 C         2.532264        -1.132943         0.373826
 H        -0.483630        -0.845415         0.939433
 H        -0.481181         0.813863         0.338260
 H        -0.646013        -0.628090        -0.857307
 H         4.170516        -0.484012        -0.954687
 H         4.288496         0.867436         1.205756
 H         3.669861         1.844689        -0.017702
 H         0.744435         1.624248         2.281030
 H         3.277553        -0.902236         2.491978
 H         1.471793        -1.034729         2.285511
 H         2.564525        -2.222284         0.109839
