19
Iteration:   971
 C        -0.218229        -0.414714        -0.283142
 C         1.326058        -0.113333        -0.056900
 O         2.110410         0.218728        -1.254420
 C         3.240900        -0.178037        -0.360362
 C         3.424197         1.005676         0.550357
 C         2.059416         0.763840         1.348333
 O         1.820519         1.984946         1.932647
 C         2.439531        -0.585641         1.932132
 C         2.350079        -1.150459         0.397083
 H        -0.690629        -0.823461         0.578171
 H        -0.829406         0.453653        -0.617963
 H        -0.522759        -1.197614        -1.011931
 H         4.151926        -0.691465        -1.050271
 H         4.145081         0.791725         1.401070
 H         3.766591         1.932041         0.057635
 H         1.449385         2.032190         2.789666
 H         3.395068        -0.623646         2.391242
 H         1.569150        -0.992617         2.438034
 H         2.222021        -2.273994         0.312665
