19
Iteration:  3813
 C        -0.072865        -0.439062        -0.096718
 C         1.373657        -0.202179         0.121000
 O         1.969616         0.122086        -1.224526
 C         3.175774        -0.172470        -0.486031
 C         3.323230         1.020321         0.368061
 C         2.136574         0.818271         1.215479
 O         1.685481         1.991319         1.798834
 C         2.554210        -0.486669         1.964010
 C         2.470218        -1.116776         0.567289
 H        -0.450530        -0.942646         0.803614
 H        -0.704804         0.412107        -0.388506
 H        -0.106779        -1.363374        -0.732589
 H         4.139528        -0.558641        -0.933422
 H         4.278804         1.052847         0.923050
 H         2.986866         1.943891        -0.202958
 H         1.091848         1.768573         2.502646
 H         3.548488        -0.450868         2.461612
 H         1.947860        -0.837536         2.763498
 H         2.265816        -2.106032         0.244377
