19
Iteration:  3379charge 0 multiplicity 1
 C        -0.228066        -0.212200         0.079978
 C         1.334646        -0.141512         0.136310
 O         2.079681         0.075050        -1.202328
 C         3.330370        -0.210929        -0.487964
 C         3.378274         1.039942         0.362041
 C         2.131423         0.755014         1.198289
 O         1.442490         1.846774         1.826187
 C         2.635788        -0.580162         1.917158
 C         2.540040        -1.165427         0.471576
 H        -0.641418        -0.214210         1.071681
 H        -0.601934         0.792350        -0.282337
 H        -0.558039        -0.943073        -0.660547
 H         4.167398        -0.620783        -1.042597
 H         4.167082         1.120521         1.112516
 H         3.310168         1.988265        -0.236174
 H         1.410700         2.605683         1.262638
 H         3.630172        -0.513014         2.421675
 H         1.842670        -0.825886         2.628539
 H         2.453723        -2.184662         0.089835
