19
Iteration:  2374charge 0 multiplicity 1
 C        -0.102386        -0.030721        -0.024201
 C         1.406785        -0.120207         0.036962
 O         2.098149         0.026723        -1.202204
 C         3.267482        -0.153692        -0.378547
 C         3.395497         1.126623         0.274106
 C         2.165666         0.736171         1.226129
 O         1.536407         1.736995         1.965265
 C         2.456442        -0.605304         1.938933
 C         2.440757        -1.198157         0.431701
 H        -0.698203         0.154454         0.932778
 H        -0.288982         0.850841        -0.614648
 H        -0.691402        -0.837991        -0.472026
 H         4.124164        -0.449755        -1.065101
 H         4.393384         1.390341         0.501138
 H         3.247329         1.906021        -0.483261
 H         1.239227         1.134132         2.624125
 H         3.405340        -0.559319         2.512775
 H         1.486297        -0.938762         2.301855
 H         2.278476        -2.152290        -0.028785
