19
Iteration:  3178charge 0 multiplicity 1
 C        -0.151477        -0.382110         0.031718
 C         1.347314        -0.099520         0.188351
 O         2.021256         0.167528        -1.208829
 C         3.185616        -0.212869        -0.466535
 C         3.351356         1.104009         0.393521
 C         2.106540         0.758693         1.183888
 O         1.643125         1.877172         1.807328
 C         2.487668        -0.604874         1.975527
 C         2.610302        -1.165878         0.482870
 H        -0.797360        -0.463646         0.966836
 H        -0.391624         0.405817        -0.712787
 H        -0.085983        -1.304547        -0.560905
 H         3.892820        -0.591164        -1.264635
 H         4.234737         1.431270         1.004513
 H         3.080420         1.869852        -0.356918
 H         1.938684         2.581863         1.226037
 H         3.258342        -0.412529         2.704868
 H         1.509353        -1.039589         2.323499
 H         2.490114        -2.182611         0.103257
