19
Iteration:  1292
 C        -0.011048        -0.314344        -0.223534
 C         1.316278        -0.129855        -0.006375
 O         2.099434         0.203732        -1.193731
 C         3.246387        -0.227227        -0.454250
 C         3.413958         1.101452         0.419971
 C         2.124553         0.805120         1.246516
 O         1.601121         1.848087         2.010428
 C         2.407106        -0.647317         1.915735
 C         2.320889        -1.136814         0.502003
 H        -0.502519        -0.662628         0.685854
 H        -0.540193         0.597041        -0.392947
 H        -0.296906        -1.042590        -1.005314
 H         4.134806        -0.545655        -0.960644
 H         4.292447         1.178924         1.124920
 H         3.336377         1.778985        -0.454500
 H         2.402229         2.331978         2.335492
 H         3.345346        -0.829359         2.396403
 H         1.561020        -1.032679         2.484366
 H         2.243041        -2.230586         0.395233
