19
Iteration:   770charge 0 multiplicity 1
 C        -0.081109        -0.207265        -0.158501
 C         1.401538        -0.150473         0.101481
 O         1.998170         0.203726        -1.185499
 C         3.256361        -0.129450        -0.535563
 C         3.532845         0.933093         0.517720
 C         2.150983         0.747001         1.259200
 O         1.536716         1.862886         1.923277
 C         2.338875        -0.653683         1.882281
 C         2.450019        -1.176431         0.509075
 H        -0.746850        -0.353161         0.694207
 H        -0.271647         0.741504        -0.624112
 H        -0.260583        -0.871305        -0.995955
 H         4.060949        -0.505459        -1.183212
 H         4.435392         0.777058         1.087821
 H         3.522220         1.950907         0.094758
 H         2.023841         2.661010         1.636686
 H         3.153750        -0.718729         2.636086
 H         1.480685        -1.141389         2.307715
 H         2.450347        -2.180529         0.114784
