19
Iteration:    41
 C        -0.127514        -0.076577        -0.041494
 C         1.377755        -0.157157         0.020734
 O         2.202172         0.166065        -1.162911
 C         3.290511        -0.219257        -0.444003
 C         3.490494         0.989084         0.479975
 C         2.195824         0.723783         1.280773
 O         1.438056         1.918396         1.707404
 C         2.342426        -0.701343         1.917810
 C         2.437193        -1.191423         0.459606
 H        -0.431942        -0.126933         0.992776
 H        -0.396328         0.911307        -0.424881
 H        -0.636062        -0.804585        -0.665700
 H         4.104777        -0.509868        -1.113672
 H         4.437988         0.957093         1.122090
 H         3.652201         1.946606        -0.051606
 H         1.123319         1.883915         2.649475
 H         3.105758        -0.943125         2.696999
 H         1.405684        -1.089746         2.274102
 H         2.320878        -2.199571         0.192988
