19
Iteration:  2046charge 0 multiplicity 1
 C        -0.084559         0.050575        -0.046423
 C         1.386786        -0.186203        -0.079598
 O         2.084472         0.067941        -1.337114
 C         3.274708        -0.211758        -0.420047
 C         3.461902         1.043935         0.467821
 C         2.043036         0.732182         1.282264
 O         1.426546         1.778295         1.971561
 C         2.507794        -0.553667         1.900482
 C         2.484791        -1.201180         0.414652
 H        -0.544658        -0.819590         0.605965
 H        -0.393466         1.068237         0.273584
 H        -0.490914        -0.260138        -1.083431
 H         4.127952        -0.595954        -0.996531
 H         4.439619         0.894505         1.050703
 H         3.445066         2.019981        -0.041634
 H         1.384466         1.522438         2.918420
 H         3.475401        -0.403124         2.424066
 H         1.796448        -0.977903         2.586074
 H         2.689816        -2.297447         0.345537
