19
Iteration:  3936
 C        -0.128739        -0.281825         0.100502
 C         1.416906        -0.177922         0.166138
 O         1.983165         0.036348        -1.186243
 C         3.234316        -0.159879        -0.545888
 C         3.449770         1.007394         0.480261
 C         2.146400         0.755316         1.177322
 O         1.391300         1.922199         1.653324
 C         2.581472        -0.493394         1.911185
 C         2.561118        -1.089799         0.465012
 H        -0.510261        -0.779532         1.020350
 H        -0.496003         0.740306        -0.234450
 H        -0.548711        -0.937550        -0.587458
 H         4.051492        -0.455030        -1.166649
 H         4.477370         0.869022         0.963668
 H         3.469036         1.989565         0.044632
 H         1.638804         1.996167         2.569615
 H         3.535632        -0.582403         2.385217
 H         1.839290        -0.973503         2.587145
 H         2.414892        -2.140433         0.352523
