19
Iteration:  2398charge 0 multiplicity 1
 C        -0.083782        -0.016391         0.056774
 C         1.425751        -0.082138         0.022480
 O         2.041630         0.098207        -1.297043
 C         3.286989        -0.218945        -0.559969
 C         3.442323         1.033546         0.434217
 C         2.140161         0.782494         1.211222
 O         1.418749         1.733296         1.876931
 C         2.587335        -0.548537         1.914791
 C         2.423143        -1.249691         0.530936
 H        -0.497311        -0.027119         1.086037
 H        -0.390909         0.986122        -0.402499
 H        -0.644536        -0.786159        -0.429948
 H         4.058795        -0.467424        -1.269169
 H         4.220876         1.165830         1.178449
 H         3.658884         1.880441        -0.210831
 H         0.982944         1.129275         2.516490
 H         3.566503        -0.551462         2.441130
 H         1.710346        -0.950231         2.416330
 H         2.310767        -2.309653         0.534860
