19
Iteration:  3653charge 0 multiplicity 1
 C        -0.091206        -0.482296         0.074715
 C         1.295662        -0.229072        -0.027336
 O         2.030688         0.120069        -1.378599
 C         3.221864        -0.134042        -0.465881
 C         3.377440         1.064196         0.403828
 C         2.154144         0.808408         1.226052
 O         1.719748         2.014763         1.867747
 C         2.458593        -0.522632         1.937403
 C         2.420230        -1.131374         0.470922
 H        -0.367105        -0.733380         1.132460
 H        -0.679354         0.430056        -0.206847
 H        -0.459008        -1.357138        -0.288715
 H         4.129584        -0.531780        -0.955102
 H         4.313251         0.999292         1.034064
 H         3.354106         2.115712         0.198736
 H         1.229050         1.792601         2.633805
 H         3.277472        -0.465618         2.638741
 H         1.522423        -0.936942         2.474474
 H         2.641742        -2.159668         0.529312
