19
Iteration:  2927charge 0 multiplicity 1
 C        -0.119508        -0.247269         0.099432
 C         1.391740        -0.139370         0.001907
 O         1.997079         0.077542        -1.267503
 C         3.229670        -0.220617        -0.515602
 C         3.461618         1.040153         0.439519
 C         2.154556         0.805237         1.258341
 O         1.421270         1.850624         1.761228
 C         2.549463        -0.511786         1.927833
 C         2.493052        -1.156247         0.498830
 H        -0.340222        -0.403244         1.229852
 H        -0.785332         0.515367        -0.280538
 H        -0.391342        -1.195199        -0.369238
 H         4.012790        -0.522810        -1.183155
 H         4.353493         0.860954         1.119482
 H         3.439081         1.958770        -0.189092
 H         2.066380         2.430489         2.244917
 H         3.544205        -0.483186         2.448760
 H         1.810945        -0.914498         2.718941
 H         2.664336        -2.159455         0.299281
