19
Iteration:  3199
 C        -0.073027        -0.291762         0.060560
 C         1.389717        -0.198395         0.043042
 O         1.982100         0.126079        -1.225587
 C         3.299538        -0.179946        -0.557082
 C         3.436925         1.070570         0.377563
 C         2.163490         0.779098         1.179232
 O         1.498001         1.832937         1.905534
 C         2.487511        -0.494232         1.954576
 C         2.447598        -1.154646         0.542550
 H        -0.168863        -0.364341         1.217066
 H        -0.525504         0.530143        -0.486620
 H        -0.374206        -1.276180        -0.316838
 H         4.132665        -0.540539        -1.245411
 H         4.299254         0.884463         1.043195
 H         3.436861         1.971596        -0.230552
 H         1.230739         2.483572         1.183999
 H         3.419821        -0.503459         2.460915
 H         1.575217        -0.909041         2.485242
 H         2.473436        -2.209057         0.280858
