19
Iteration:  3283
 C        -0.250484        -0.301602        -0.042747
 C         1.354832        -0.122176         0.136740
 O         2.016092         0.012496        -1.217194
 C         3.237277        -0.147829        -0.544521
 C         3.389810         1.077757         0.437114
 C         2.111464         0.776125         1.168728
 O         1.527507         1.878316         1.826818
 C         2.580971        -0.561708         1.977028
 C         2.615242        -1.156995         0.546323
 H        -0.704277        -0.581354         0.994025
 H        -0.678182         0.744876        -0.110055
 H        -0.570100        -0.928060        -0.846061
 H         4.009292        -0.383554        -1.320102
 H         4.345857         0.965558         0.953160
 H         3.454417         2.064142        -0.080025
 H         2.075818         2.578294         1.516136
 H         3.470364        -0.413970         2.599503
 H         1.861570        -1.116748         2.663877
 H         2.568964        -2.171257         0.205513
