19
Iteration:  2518charge 0 multiplicity 1
 C        -0.089824        -0.208656        -0.090516
 C         1.379843        -0.112369         0.098671
 O         1.969232         0.159724        -1.212740
 C         3.228503        -0.247474        -0.462908
 C         3.335867         1.087077         0.312577
 C         2.167138         0.721805         1.215608
 O         1.646956         1.882669         1.894349
 C         2.476924        -0.556272         1.972280
 C         2.496100        -1.245319         0.466669
 H        -0.505356        -0.621091         0.863276
 H        -0.635142         0.771089        -0.339741
 H        -0.127953        -0.954065        -0.870093
 H         4.064201        -0.439725        -1.127916
 H         4.218977         1.319263         0.866286
 H         3.187746         1.948699        -0.310681
 H         1.267066         1.538669         2.744616
 H         3.389919        -0.580865         2.648032
 H         1.620688        -0.852054         2.626548
 H         2.732354        -2.291227         0.314479
