19
Iteration:  2670charge 0 multiplicity 1
 C        -0.108511        -0.360973        -0.045429
 C         1.375611        -0.026142         0.128518
 O         2.020099         0.093920        -1.258183
 C         3.288704        -0.197315        -0.454000
 C         3.490758         1.121536         0.225699
 C         2.145770         0.826743         1.183294
 O         1.626392         1.835445         1.894602
 C         2.411762        -0.531184         1.964545
 C         2.354352        -1.135105         0.581829
 H        -0.405587        -1.130890         0.601385
 H        -0.769328         0.482645         0.179583
 H        -0.301615        -0.707438        -1.037670
 H         4.162363        -0.727835        -0.829621
 H         4.447812         1.174787         0.715679
 H         3.216323         1.837007        -0.545106
 H         1.372082         1.336155         2.728230
 H         3.439309        -0.577260         2.375531
 H         1.682227        -0.888008         2.688363
 H         2.318125        -2.249826         0.396881
