19
Iteration:  1720
 C        -0.087319         0.038471        -0.030558
 C         1.431695         0.011884         0.092886
 O         2.171546         0.101048        -1.245755
 C         3.268605        -0.221201        -0.458441
 C         3.431959         1.040271         0.388578
 C         2.169904         0.754671         1.197317
 O         1.334609         1.600921         1.924064
 C         2.472159        -0.600830         1.862806
 C         2.406583        -1.173484         0.487576
 H        -0.632232         0.032139         0.935457
 H        -0.243953         0.986551        -0.499494
 H        -0.347746        -0.832778        -0.710106
 H         4.227490        -0.492187        -0.815726
 H         4.468531         1.159056         0.819976
 H         3.093824         1.848756        -0.252307
 H         1.678954         1.520678         2.805647
 H         3.468802        -0.845940         2.401922
 H         1.534586        -0.857007         2.382645
 H         2.530745        -2.174259         0.068119
