19
Iteration:  4764
 C        -0.138827        -0.288590         0.096745
 C         1.403878        -0.120218         0.078812
 O         2.012977         0.099313        -1.161345
 C         3.296087        -0.239867        -0.506098
 C         3.366515         1.112733         0.338282
 C         2.066611         0.749097         1.250414
 O         1.459768         1.866681         1.803217
 C         2.563605        -0.561768         1.901692
 C         2.587280        -1.172348         0.519145
 H        -0.721258        -0.748346         0.973976
 H        -0.555942         0.763773        -0.058586
 H        -0.378442        -0.943537        -0.806950
 H         4.155235        -0.523799        -1.257112
 H         4.370386         1.224829         0.925423
 H         3.121854         1.893732        -0.454948
 H         1.822812         2.669507         1.463240
 H         3.532584        -0.592094         2.487480
 H         1.738963        -0.985806         2.515402
 H         2.608693        -2.186410         0.272291
