19
Iteration:  4388
 C        -0.088550        -0.227240         0.144249
 C         1.385097        -0.209434         0.168614
 O         2.022713        -0.011733        -1.268467
 C         3.241806        -0.193570        -0.539077
 C         3.327852         1.159368         0.410207
 C         2.139693         0.807686         1.195548
 O         1.424721         1.850595         1.748886
 C         2.572295        -0.526284         1.893373
 C         2.570728        -1.162151         0.483451
 H        -0.343178        -0.730869         1.093065
 H        -0.607561         0.777918         0.128733
 H        -0.429285        -0.911704        -0.707920
 H         4.143489        -0.511040        -1.063367
 H         4.264122         1.276544         1.006788
 H         3.317314         1.932140        -0.434903
 H         1.878883         2.287422         2.503368
 H         3.489767        -0.339945         2.435991
 H         1.682527        -0.840313         2.437573
 H         2.655644        -2.368122         0.301699
