19
Iteration:   375charge 0 multiplicity 1
 C        -0.081560         0.093903        -0.097696
 C         1.381752        -0.065099         0.016984
 O         2.067466         0.036467        -1.295240
 C         3.372837        -0.215938        -0.461630
 C         3.498413         1.030902         0.544894
 C         2.121622         0.744792         1.217054
 O         1.337483         1.717091         1.948404
 C         2.385769        -0.716738         1.866181
 C         2.542668        -1.154378         0.482190
 H        -0.467610         0.008353         0.883150
 H        -0.214500         1.070839        -0.443076
 H        -0.495402        -0.693675        -0.688830
 H         4.111978        -0.515974        -1.210738
 H         4.270275         0.923523         1.313072
 H         3.661848         1.966336         0.039465
 H         1.927171         2.428461         2.332991
 H         3.200839        -0.690667         2.529095
 H         1.476699        -1.112557         2.322918
 H         2.389905        -2.281598         0.125782
