19
Iteration:  4407
 C        -0.063536        -0.296315         0.148786
 C         1.417003        -0.207125        -0.012775
 O         2.007032         0.055562        -1.222777
 C         3.307809        -0.165403        -0.480508
 C         3.368774         1.134500         0.229067
 C         2.163981         0.761835         1.173591
 O         1.391776         1.822984         1.842532
 C         2.546471        -0.531428         1.979400
 C         2.473999        -1.120037         0.563199
 H        -0.298611        -0.621100         1.129146
 H        -0.288904         0.812360        -0.187681
 H        -0.666491        -0.877620        -0.633672
 H         4.133647        -0.518259        -1.229500
 H         4.252388         1.237078         0.774511
 H         2.939334         1.991523        -0.404130
 H         2.193672         2.340877         2.186405
 H         3.527900        -0.411782         2.603917
 H         1.694399        -0.891625         2.641119
 H         2.554752        -2.257250         0.463390
