19
Iteration:  1763charge 0 multiplicity 1
 C        -0.119760        -0.090960        -0.165292
 C         1.371048        -0.088309         0.066957
 O         2.123380         0.155295        -1.217358
 C         3.230196        -0.159037        -0.464527
 C         3.407038         0.980880         0.503866
 C         2.099088         0.710563         1.223798
 O         1.478910         1.768097         1.960777
 C         2.476194        -0.668231         1.881054
 C         2.505187        -1.147204         0.426413
 H        -0.628862        -0.205731         0.816687
 H        -0.338657         0.878974        -0.557652
 H        -0.426765        -0.907081        -0.928725
 H         3.970346        -0.453092        -1.188051
 H         4.320814         0.925745         1.201837
 H         3.439753         1.858550        -0.134380
 H         2.121937         2.187841         2.582598
 H         3.461494        -0.366869         2.434677
 H         1.627860        -1.152505         2.409016
 H         2.189772        -2.216792         0.275643
