19
Iteration:  3313
 C        -0.026637        -0.464860         0.032110
 C         1.397384        -0.095199         0.028925
 O         1.994056         0.149088        -1.176769
 C         3.238539        -0.299112        -0.431552
 C         3.435315         1.083999         0.342403
 C         2.153922         0.865860         1.149480
 O         1.517340         1.877317         1.891428
 C         2.491163        -0.500702         1.933359
 C         2.396035        -1.133744         0.480018
 H        -0.330385        -0.759553         0.997006
 H        -0.714960         0.396895        -0.104089
 H        -0.440307        -1.184688        -0.667936
 H         3.945511        -0.716940        -1.104118
 H         4.343208         1.033708         0.934764
 H         3.362690         1.873837        -0.429203
 H         2.187892         2.629180         1.906727
 H         3.486201        -0.542166         2.473795
 H         1.676193        -0.723735         2.591964
 H         2.273482        -2.121966         0.024813
