19
Iteration:  2687
 C        -0.113975        -0.196957         0.037852
 C         1.374081        -0.137314        -0.037165
 O         2.037127         0.008193        -1.245637
 C         3.239352        -0.271942        -0.487812
 C         3.424880         1.060389         0.339735
 C         2.209325         0.825668         1.194316
 O         1.491011         1.854502         1.922813
 C         2.537751        -0.471680         1.913198
 C         2.489382        -1.121626         0.511403
 H        -0.365659        -0.936333         0.900665
 H        -0.597692         0.758035         0.275372
 H        -0.430064        -0.558003        -0.977379
 H         4.001215        -0.621276        -1.194652
 H         4.312070         1.114538         1.023188
 H         3.274485         1.949675        -0.308137
 H         1.092054         1.536747         2.786860
 H         3.327520        -0.570120         2.656064
 H         1.598695        -0.754864         2.443971
 H         2.416546        -2.179433         0.366040
