19
Iteration:  2887
 C        -0.046582        -0.089511         0.295362
 C         1.437162        -0.129363         0.049696
 O         2.004521         0.140005        -1.221962
 C         3.333348        -0.222701        -0.507308
 C         3.391278         1.049570         0.373634
 C         2.234727         0.737113         1.144197
 O         1.337293         1.749547         1.614527
 C         2.444370        -0.560807         1.949342
 C         2.534033        -1.183348         0.489703
 H         0.051928        -0.503595         1.324411
 H        -0.394643         0.969044         0.300631
 H        -0.601338        -0.827085        -0.273046
 H         4.181713        -0.737454        -1.057964
 H         4.315329         1.369003         0.836934
 H         3.111564         1.903173        -0.258285
 H         1.301497         2.172843         2.463568
 H         3.301837        -0.789046         2.621103
 H         1.517977        -0.956364         2.334297
 H         2.804485        -2.268026         0.347990
