19
Iteration:  1497
 C        -0.130169        -0.293192        -0.054117
 C         1.416921        -0.153017        -0.056869
 O         2.063602         0.285012        -1.168591
 C         3.273726        -0.050877        -0.396132
 C         3.461617         1.054101         0.544163
 C         2.140706         0.730448         1.231537
 O         1.615445         1.820158         1.896377
 C         2.295159        -0.719986         1.853204
 C         2.449338        -1.218786         0.438539
 H        -0.480608        -0.392451         0.959610
 H        -0.529015         0.656782        -0.368393
 H        -0.395499        -1.150008        -0.586871
 H         4.113734        -0.468877        -1.054039
 H         4.372034         0.889442         1.017071
 H         3.462930         1.882175        -0.162791
 H         1.931544         2.563246         1.296667
 H         3.062286        -0.856413         2.614079
 H         1.329428        -0.950213         2.362858
 H         2.387596        -2.257818         0.032328
