19
Iteration:   692charge 0 multiplicity 1
 C        -0.105095        -0.008684        -0.065874
 C         1.401436        -0.080291         0.041967
 O         2.132844         0.089970        -1.273939
 C         3.292155        -0.152638        -0.530466
 C         3.439385         0.990421         0.562946
 C         2.088856         0.689308         1.272738
 O         1.552862         1.820614         1.828768
 C         2.333714        -0.633974         1.933685
 C         2.473329        -1.197326         0.438424
 H        -0.518360        -0.325045         0.910698
 H        -0.277377         1.049759        -0.155417
 H        -0.333366        -0.640048        -0.907470
 H         4.186904        -0.357625        -1.046749
 H         4.275386         0.933132         1.235475
 H         3.545231         1.869891        -0.066652
 H         0.908192         1.510538         2.552834
 H         3.215593        -0.656299         2.582187
 H         1.462742        -1.152430         2.399489
 H         2.487392        -2.303107         0.242205
