19
Iteration:  4926charge 0 multiplicity 1
 C        -0.137932        -0.319353         0.150879
 C         1.392660        -0.106282         0.061387
 O         2.002010         0.063218        -1.238351
 C         3.264847        -0.288388        -0.618382
 C         3.433717         1.127904         0.333006
 C         2.132069         0.811476         1.166786
 O         1.396010         1.803027         1.888371
 C         2.572306        -0.467207         1.952922
 C         2.568507        -1.115475         0.518743
 H        -0.459377        -0.420269         1.211851
 H        -0.624266         0.352872        -0.491047
 H        -0.379540        -1.266013        -0.326622
 H         4.270604        -0.493747        -1.216503
 H         4.406648         1.093763         0.873191
 H         3.100597         1.820960        -0.340854
 H         2.033474         2.497698         2.085304
 H         3.448767        -0.398127         2.702956
 H         1.681056        -0.848924         2.543158
 H         2.437567        -2.132924         0.243704
