19
Iteration:  4775
 C        -0.116543        -0.287334         0.091570
 C         1.366198        -0.139562         0.116807
 O         1.973259         0.087697        -1.210956
 C         3.255226        -0.131724        -0.451662
 C         3.441644         1.097122         0.293875
 C         2.160562         0.732079         1.135056
 O         1.462341         1.783836         1.765238
 C         2.513152        -0.564141         1.983389
 C         2.552840        -1.094616         0.543714
 H        -0.475097        -0.853640         1.037303
 H        -0.720933         0.676906         0.011541
 H        -0.384471        -0.900773        -0.839002
 H         4.052287        -0.611241        -1.153282
 H         4.374713         1.300966         0.967856
 H         3.313184         2.117560        -0.162607
 H         2.102021         2.490155         1.677640
 H         3.398394        -0.406914         2.673489
 H         1.728013        -1.201577         2.429199
 H         2.563591        -2.122473         0.406173
