19
Iteration:   729
 C        -0.128588         0.060008         0.087311
 C         1.379026        -0.061721        -0.008643
 O         2.264903         0.166432        -1.206804
 C         3.325432        -0.289206        -0.324792
 C         3.511265         1.053432         0.424885
 C         2.123766         0.741748         1.131653
 O         1.412836         1.658009         1.918170
 C         2.421371        -0.614574         1.839555
 C         2.363103        -1.219709         0.412312
 H        -0.642028        -0.081202         1.013747
 H        -0.378944         1.032142        -0.347559
 H        -0.643687        -0.686942        -0.564826
 H         4.208847        -0.578171        -1.097426
 H         4.407883         1.290017         1.055132
 H         3.481377         1.722392        -0.481992
 H         0.457594         1.765153         1.635433
 H         3.435976        -0.768076         2.229490
 H         1.685593        -0.873215         2.552369
 H         2.213042        -2.278583         0.353480
