19
Iteration:   546charge 0 multiplicity 1
 C        -0.181473         0.071553        -0.077667
 C         1.399944        -0.058592        -0.020879
 O         2.093344         0.237070        -1.168139
 C         3.276738        -0.240276        -0.388449
 C         3.658527         0.925699         0.414859
 C         2.158206         0.738973         1.211814
 O         1.301026         1.696429         1.819606
 C         2.520458        -0.665556         1.939226
 C         2.435957        -1.204167         0.467502
 H        -0.660523        -0.076141         0.944926
 H        -0.297256         1.098395        -0.622609
 H        -0.499120        -0.705129        -0.854160
 H         3.992888        -0.708178        -1.138466
 H         4.502649         0.741365         1.139744
 H         3.655349         1.899536        -0.106729
 H         1.005874         1.438883         2.681939
 H         3.434501        -0.362108         2.546866
 H         1.746721        -1.050634         2.676173
 H         2.589734        -2.244057         0.220140
