19
Iteration:   769
 C        -0.082281        -0.201032        -0.153088
 C         1.412044        -0.151088         0.095771
 O         1.997346         0.199907        -1.197687
 C         3.250746        -0.130861        -0.530283
 C         3.539066         0.927275         0.521178
 C         2.148501         0.750843         1.263841
 O         1.531265         1.859194         1.923726
 C         2.344311        -0.651626         1.888429
 C         2.449357        -1.177054         0.507994
 H        -0.764796        -0.332480         0.711286
 H        -0.255401         0.760040        -0.633851
 H        -0.238508        -0.850140        -0.998456
 H         4.014012        -0.440910        -1.168038
 H         4.439892         0.770317         1.076534
 H         3.520880         1.927983         0.083563
 H         1.976438         2.643744         1.605236
 H         3.176892        -0.706387         2.630141
 H         1.476320        -1.154126         2.337605
 H         2.456236        -2.182591         0.094830
