19
Iteration:  4670
 C        -0.178200        -0.345404         0.113114
 C         1.339237        -0.161367         0.155456
 O         2.097865         0.071450        -1.252887
 C         3.248981        -0.131985        -0.497878
 C         3.410359         1.152594         0.447837
 C         2.081935         0.745497         1.201164
 O         1.521674         1.836840         1.790955
 C         2.554460        -0.571591         1.914106
 C         2.523686        -1.107891         0.441930
 H        -0.594474        -0.251249         1.060738
 H        -0.637641         0.411182        -0.597108
 H        -0.591555        -1.321713        -0.347308
 H         4.018299        -0.481622        -1.154388
 H         4.216480         0.903018         1.077999
 H         3.271423         2.051620        -0.236142
 H         1.916661         2.631726         1.352111
 H         3.575918        -0.434173         2.384973
 H         1.689055        -0.973256         2.601235
 H         2.463085        -2.249058         0.413100
