19
Iteration:  2528charge 0 multiplicity 1
 C        -0.061581        -0.135509        -0.002608
 C         1.362037        -0.184681         0.096496
 O         2.026305         0.099186        -1.147661
 C         3.244532        -0.183515        -0.568971
 C         3.349581         1.062308         0.333032
 C         2.110184         0.749992         1.258344
 O         1.593740         1.857711         1.848739
 C         2.493582        -0.561708         1.941216
 C         2.535009        -1.235541         0.451186
 H        -0.788675        -0.252095         0.848204
 H        -0.285800         0.887983        -0.506182
 H        -0.433382        -0.810174        -0.757570
 H         4.113593        -0.310937        -1.231563
 H         4.251300         1.190262         0.869764
 H         2.963518         1.854370        -0.290018
 H         1.211691         1.683125         2.770349
 H         3.420059        -0.570062         2.622835
 H         1.610332        -1.044588         2.450871
 H         2.626366        -2.296608         0.372992
