19
Iteration:  1795
 C        -0.082282        -0.321448        -0.039641
 C         1.398420        -0.114149        -0.034736
 O         2.052305         0.398835        -1.207425
 C         3.215392        -0.112244        -0.427793
 C         3.551455         1.028173         0.522557
 C         2.226981         0.702375         1.279587
 O         1.551260         1.815934         1.820643
 C         2.272972        -0.762775         1.883249
 C         2.395353        -1.195743         0.454802
 H        -0.429183        -0.643631         0.955916
 H        -0.464838         0.623926        -0.273764
 H        -0.239885        -1.172176        -0.785148
 H         4.037048        -0.447682        -1.044674
 H         4.481452         0.970101         1.139421
 H         3.492347         1.815426        -0.204881
 H         2.008440         2.656808         2.083817
 H         3.128906        -0.922122         2.614128
 H         1.322278        -0.942827         2.394574
 H         2.270087        -2.278071         0.123825
