19
Iteration:    94charge 0 multiplicity 1
 C        -0.278236        -0.208572        -0.191687
 C         1.266377        -0.147627        -0.093133
 O         2.221945         0.074447        -1.233979
 C         3.362853        -0.233405        -0.409651
 C         3.481428         0.993911         0.545043
 C         2.091044         0.791849         1.213289
 O         1.636966         2.002989         2.025549
 C         2.430007        -0.604284         1.861831
 C         2.389832        -1.177614         0.474969
 H        -0.654494        -0.580046         0.799042
 H        -0.667373         0.807501        -0.493431
 H        -0.529256        -1.016754        -0.946140
 H         4.230349        -0.436362        -1.055211
 H         4.191987         0.809638         1.425929
 H         3.719177         1.955378         0.037334
 H         0.649489         2.022955         2.143746
 H         3.498096        -0.706138         2.253447
 H         1.588642        -1.040409         2.572468
 H         2.326923        -2.240957         0.263445
