19
Iteration:  4337
 C        -0.056078        -0.365164         0.173010
 C         1.441811        -0.097015         0.135205
 O         1.952840         0.171460        -1.194209
 C         3.297472        -0.268672        -0.499149
 C         3.437362         1.080259         0.334381
 C         2.100728         0.800326         1.116895
 O         1.413727         1.822939         1.720993
 C         2.527682        -0.468633         1.923733
 C         2.537168        -1.138653         0.541326
 H        -0.436953        -0.892023         1.118246
 H        -0.569332         0.484899        -0.233107
 H        -0.235720        -1.062022        -0.633205
 H         4.016374        -0.679696        -1.165675
 H         4.402420         1.072984         0.913179
 H         3.218798         1.834582        -0.369067
 H         1.877839         2.169705         2.545547
 H         3.503494        -0.570121         2.475320
 H         1.644534        -0.903900         2.443449
 H         2.278716        -2.089038         0.239357
