19
Iteration:  4624charge 0 multiplicity 1
 C        -0.034761        -0.374284         0.157545
 C         1.433923        -0.078089         0.119160
 O         2.045940         0.121975        -1.225012
 C         3.266139        -0.185640        -0.559838
 C         3.425885         1.059401         0.315666
 C         2.138868         0.841174         1.130238
 O         1.410331         1.782296         1.800035
 C         2.508698        -0.513384         1.976338
 C         2.421755        -1.127593         0.587196
 H        -0.523854        -0.810131         1.017485
 H        -0.577932         0.566924        -0.236415
 H        -0.122397        -1.060961        -0.754817
 H         4.037045        -0.694888        -1.288171
 H         4.397570         1.001970         0.927697
 H         3.143552         1.946636        -0.389272
 H         2.020993         2.390006         2.170452
 H         3.487244        -0.456047         2.511075
 H         1.608491        -0.943133         2.434443
 H         2.302671        -2.087376         0.165063
