19
Iteration:  1459
 C        -0.071597        -0.302553        -0.175221
 C         1.343271         0.008721        -0.005095
 O         2.086540         0.197169        -1.261659
 C         3.198640        -0.185809        -0.415080
 C         3.528136         0.934321         0.461217
 C         2.157660         0.794360         1.223480
 O         1.497190         1.788512         2.002144
 C         2.485389        -0.597406         1.934774
 C         2.319041        -1.119164         0.449485
 H        -0.371121        -0.953179         0.674510
 H        -0.832529         0.461704        -0.383421
 H        -0.173860        -0.922983        -1.112192
 H         4.046810        -0.438988        -0.961579
 H         4.489784         0.854846         1.061422
 H         3.612506         1.853774        -0.137641
 H         2.085570         2.361637         2.544348
 H         3.439781        -0.522522         2.509285
 H         1.671006        -0.908674         2.568087
 H         2.165059        -2.162984         0.180002
