19
Iteration:  4017
 C        -0.193778        -0.365119         0.016456
 C         1.343724        -0.292875         0.024683
 O         2.026385         0.063370        -1.254479
 C         3.267986        -0.157549        -0.505738
 C         3.440291         1.079105         0.437639
 C         2.189733         0.835034         1.259701
 O         1.563996         1.901770         1.895488
 C         2.493424        -0.482315         1.935522
 C         2.467003        -1.136818         0.471650
 H        -0.528757        -0.399378         1.010134
 H        -0.573367         0.595078        -0.184470
 H        -0.509858        -1.163804        -0.702298
 H         4.208081        -0.442602        -1.071343
 H         4.312933         1.011189         1.070654
 H         3.345833         2.046948        -0.136959
 H         1.312255         2.491382         1.139024
 H         3.444874        -0.328722         2.403958
 H         1.724731        -0.970391         2.494150
 H         2.720613        -2.259358         0.516727
