19
Iteration:  3768
 C        -0.038221        -0.309901         0.263402
 C         1.401261        -0.079653         0.037925
 O         2.064766         0.065922        -1.294695
 C         3.263803        -0.139323        -0.478119
 C         3.417961         1.092024         0.329870
 C         2.154273         0.787264         1.149213
 O         1.511806         1.840742         1.752270
 C         2.383433        -0.514726         1.955403
 C         2.480571        -1.165170         0.509100
 H        -0.293857        -0.657435         1.230295
 H        -0.397918         0.646959        -0.031306
 H        -0.344378        -1.183663        -0.445729
 H         4.082399        -0.449861        -1.204839
 H         4.358057         1.039072         0.866531
 H         3.358011         2.005509        -0.351050
 H         0.858773         1.412878         2.277377
 H         3.245974        -0.525820         2.690491
 H         1.562149        -0.778362         2.588462
 H         2.595522        -2.277336         0.319119
