19
Iteration:  2672charge 0 multiplicity 1
 C        -0.101788        -0.334874        -0.035800
 C         1.384298        -0.021642         0.116449
 O         2.014334         0.083158        -1.263824
 C         3.294902        -0.214167        -0.453268
 C         3.479891         1.120807         0.231271
 C         2.152011         0.824719         1.198609
 O         1.608349         1.829387         1.898144
 C         2.412527        -0.523433         1.953663
 C         2.361419        -1.131030         0.589722
 H        -0.389163        -1.135024         0.585537
 H        -0.821812         0.534853         0.202426
 H        -0.373657        -0.752299        -1.038161
 H         4.167282        -0.750079        -0.877290
 H         4.488038         1.169186         0.671264
 H         3.271789         1.905536        -0.537360
 H         1.369801         1.333375         2.681858
 H         3.477648        -0.553786         2.350153
 H         1.618811        -0.932662         2.688460
 H         2.435211        -2.274683         0.386764
