19
Iteration:  3499
 C        -0.164659        -0.475996         0.010332
 C         1.374657        -0.154820         0.058047
 O         2.024729         0.162140        -1.268001
 C         3.183378        -0.129002        -0.555438
 C         3.540072         1.004489         0.429340
 C         2.215555         0.771248         1.213377
 O         1.475648         1.915960         1.819674
 C         2.545560        -0.481879         1.974670
 C         2.392678        -1.134533         0.531091
 H        -0.599635        -0.593339         1.065536
 H        -0.671034         0.515719        -0.282242
 H        -0.385174        -1.205345        -0.768498
 H         3.997841        -0.536123        -1.255190
 H         4.467986         0.765662         1.007652
 H         3.491032         2.014206        -0.098408
 H         2.185010         2.327351         2.413348
 H         3.455437        -0.501768         2.616578
 H         1.652322        -0.830889         2.586319
 H         2.352511        -2.215438         0.416288
