19
Iteration:  4809
 C        -0.072072        -0.359539         0.174522
 C         1.382348        -0.128834         0.099919
 O         2.019311         0.105196        -1.236261
 C         3.296411        -0.246981        -0.513178
 C         3.512579         1.032545         0.346367
 C         2.104613         0.820435         1.136995
 O         1.358801         1.959839         1.814666
 C         2.523411        -0.528052         1.870681
 C         2.494644        -1.124832         0.476994
 H        -0.155327        -0.932121         1.091510
 H        -0.683393         0.624031         0.262545
 H        -0.385030        -1.066069        -0.701234
 H         4.116240        -0.648747        -1.160351
 H         4.387782         0.910539         1.036910
 H         3.386439         1.924628        -0.375509
 H         1.681685         2.090768         2.688727
 H         3.472822        -0.429784         2.442320
 H         1.829776        -1.133385         2.443940
 H         2.392748        -2.169774         0.371812
