19
Iteration:  4982
 C        -0.079729        -0.386596         0.197896
 C         1.379072        -0.061209         0.076204
 O         2.004952         0.176311        -1.192929
 C         3.219987        -0.277584        -0.548064
 C         3.390111         1.013248         0.321303
 C         2.142986         0.801689         1.200069
 O         1.445038         1.879740         1.680383
 C         2.602758        -0.499749         1.913622
 C         2.534339        -1.139088         0.545001
 H        -0.383869        -0.802739         1.130653
 H        -0.503257         0.589130         0.271244
 H        -0.294600        -1.034941        -0.672580
 H         4.151883        -0.420111        -1.217353
 H         4.398366         1.216333         0.890084
 H         3.147730         1.823251        -0.339919
 H         1.028569         1.695995         2.599777
 H         3.600441        -0.475796         2.506747
 H         1.791582        -0.957975         2.566265
 H         2.590482        -2.153260         0.454232
