19
Iteration:  4936
 C        -0.057656        -0.309604         0.134789
 C         1.421103        -0.158983         0.079231
 O         1.943124         0.011916        -1.278931
 C         3.283272        -0.182015        -0.594860
 C         3.351107         1.094779         0.378124
 C         2.125357         0.808892         1.243140
 O         1.416147         1.873842         1.809214
 C         2.557170        -0.481498         1.928102
 C         2.591529        -1.149571         0.477724
 H        -0.307412        -0.336011         1.251809
 H        -0.648250         0.517863        -0.158484
 H        -0.281273        -1.279004        -0.248757
 H         4.089879        -0.677862        -1.293436
 H         4.326791         1.057398         0.982225
 H         3.405583         2.051842        -0.115505
 H         1.981933         2.422873         2.411618
 H         3.409731        -0.489498         2.643495
 H         1.653217        -0.905920         2.415064
 H         2.355727        -2.219751         0.333630
