19
Iteration:  4430charge 0 multiplicity 1
 C        -0.150621        -0.305098         0.128478
 C         1.396623        -0.090860         0.094321
 O         2.043185         0.024786        -1.209243
 C         3.233472        -0.205566        -0.465974
 C         3.384488         1.089318         0.312247
 C         2.162552         0.850320         1.134356
 O         1.435462         1.757482         1.875217
 C         2.584539        -0.426788         1.864791
 C         2.562841        -1.155692         0.537247
 H        -0.532735        -0.551924         1.092320
 H        -0.687171         0.514275        -0.486549
 H        -0.352231        -1.239813        -0.519468
 H         4.066520        -0.421165        -1.202071
 H         4.184931         1.127313         0.983231
 H         3.150671         2.005148        -0.319940
 H         1.852533         2.603066         1.821027
 H         3.499887        -0.712248         2.437933
 H         1.738216        -0.864570         2.467843
 H         2.338053        -2.267808         0.279455
