19
Iteration:  3085charge 0 multiplicity 1
 C        -0.171742        -0.138544         0.183866
 C         1.430994        -0.168638         0.055489
 O         2.026943         0.041203        -1.223035
 C         3.288156        -0.163908        -0.539181
 C         3.361359         1.052517         0.429796
 C         2.114701         0.718647         1.191400
 O         1.424693         1.844616         1.696234
 C         2.581320        -0.605180         1.965415
 C         2.572521        -1.176429         0.539944
 H        -0.571964        -0.502178         1.100660
 H        -0.509916         0.913319         0.056593
 H        -0.637149        -0.710320        -0.659898
 H         4.140567        -0.222330        -1.207113
 H         4.176851         1.290114         1.096624
 H         3.211680         1.918560        -0.236739
 H         1.986930         2.657256         1.532352
 H         3.572052        -0.548718         2.470103
 H         1.781507        -1.113562         2.420507
 H         2.496181        -2.307461         0.404068
