19
Iteration:   400charge 0 multiplicity 1
 C        -0.153369         0.046910        -0.063285
 C         1.365746        -0.208928        -0.057252
 O         2.235222         0.152316        -1.289406
 C         3.308164        -0.161993        -0.404648
 C         3.368169         0.993404         0.573690
 C         2.098411         0.673806         1.210949
 O         1.537880         1.736386         1.964023
 C         2.347799        -0.659876         1.865007
 C         2.449060        -1.184590         0.466568
 H        -0.418686        -0.079222         1.005658
 H        -0.301327         1.099215        -0.418753
 H        -0.684993        -0.733398        -0.630167
 H         4.167964        -0.441034        -0.972389
 H         4.265354         1.009610         1.190083
 H         3.269168         1.950237         0.028864
 H         1.692385         2.581142         1.442030
 H         3.168949        -0.556205         2.569121
 H         1.458992        -1.075948         2.350828
 H         2.613108        -2.190361         0.023331
