19
Iteration:  2738
 C        -0.118046        -0.146521         0.178025
 C         1.433461        -0.195702         0.184628
 O         2.035137         0.217194        -1.215242
 C         3.303832        -0.236341        -0.484966
 C         3.433193         1.082239         0.344612
 C         2.214583         0.751106         1.234638
 O         1.450396         1.848115         1.690077
 C         2.528490        -0.636951         1.909689
 C         2.467817        -1.214800         0.476186
 H        -0.633023        -0.064358         1.087512
 H        -0.251308         0.806010        -0.446914
 H        -0.473570        -1.046967        -0.380014
 H         4.106036        -0.370091        -1.237358
 H         4.354875         1.167593         0.933238
 H         3.017948         1.872970        -0.295645
 H         0.495660         1.632291         1.801003
 H         3.447914        -0.677069         2.559889
 H         1.693854        -1.094651         2.538581
 H         2.325274        -2.324624         0.199273
