19
Iteration:  2307charge 0 multiplicity 1
 C        -0.065406        -0.403035        -0.087606
 C         1.349663         0.006740         0.049552
 O         2.017748         0.340590        -1.153472
 C         3.152637        -0.242211        -0.463176
 C         3.535993         0.966700         0.473475
 C         2.224132         0.784406         1.250325
 O         1.692095         1.868657         1.857737
 C         2.372790        -0.644282         1.906410
 C         2.386358        -1.130886         0.440782
 H        -0.495048        -0.912169         0.816002
 H        -0.762561         0.356873        -0.313733
 H        -0.058185        -1.235928        -0.862107
 H         3.905713        -0.790515        -1.151923
 H         4.450504         1.002826         0.978477
 H         3.528122         1.935569        -0.021587
 H         0.702983         1.907228         1.969096
 H         3.232146        -0.612507         2.623039
 H         1.415374        -1.082752         2.258723
 H         2.264198        -2.170637         0.075418
