19
Iteration:  1721
 C        -0.089527         0.032446        -0.039010
 C         1.425960         0.011357         0.087644
 O         2.177074         0.097771        -1.243059
 C         3.264706        -0.221544        -0.453717
 C         3.438708         1.048496         0.393546
 C         2.176524         0.764430         1.196370
 O         1.333933         1.597221         1.925858
 C         2.478284        -0.608146         1.854598
 C         2.396882        -1.171909         0.491672
 H        -0.633933         0.032555         0.936893
 H        -0.244400         1.016892        -0.483121
 H        -0.377937        -0.827705        -0.680963
 H         4.225428        -0.493365        -0.825657
 H         4.474411         1.167493         0.813438
 H         3.056448         1.825079        -0.255237
 H         1.698820         1.506325         2.785033
 H         3.461156        -0.826513         2.394802
 H         1.550704        -0.849788         2.408221
 H         2.515687        -2.158942         0.079400
