19
Iteration:  2920charge 0 multiplicity 1
 C        -0.094977        -0.219238         0.156451
 C         1.394002        -0.161291         0.045402
 O         2.022865         0.045525        -1.225720
 C         3.322007        -0.145766        -0.582746
 C         3.409033         1.024172         0.428903
 C         2.152470         0.828006         1.177720
 O         1.388227         1.854959         1.737129
 C         2.526532        -0.554529         1.930691
 C         2.467772        -1.152815         0.506542
 H        -0.260660        -0.297414         1.241176
 H        -0.766036         0.665746        -0.061729
 H        -0.586018        -1.121582        -0.253098
 H         4.163997        -0.575044        -1.219424
 H         4.252766         0.901096         1.111231
 H         3.589702         1.991250        -0.056461
 H         1.996389         2.308476         2.307318
 H         3.521840        -0.681408         2.434874
 H         1.723285        -0.991423         2.511201
 H         2.660638        -2.250295         0.306998
