19
Iteration:  2794
 C        -0.134091        -0.477275        -0.049287
 C         1.309618        -0.149737        -0.002591
 O         2.039799         0.074831        -1.210905
 C         3.247252        -0.169966        -0.483807
 C         3.426765         1.087302         0.310290
 C         2.101659         0.867957         1.172144
 O         1.771868         1.955491         2.042444
 C         2.400165        -0.590187         1.926379
 C         2.431468        -1.114837         0.520372
 H        -0.361448        -0.591370         0.992433
 H        -0.858867         0.259310        -0.480607
 H        -0.390790        -1.486692        -0.494153
 H         4.099147        -0.432441        -1.135984
 H         4.339178         1.229465         0.957939
 H         3.460853         2.082488        -0.167708
 H         1.140143         2.619931         1.654817
 H         3.356428        -0.626709         2.497842
 H         1.459570        -1.006801         2.476356
 H         2.388200        -2.189235         0.150569
