19
Iteration:  1737charge 0 multiplicity 1
 C        -0.128258         0.019262        -0.105605
 C         1.377810        -0.119747        -0.097830
 O         2.127509         0.108151        -1.244276
 C         3.341787        -0.256926        -0.372184
 C         3.465089         1.184359         0.413593
 C         2.193862         0.748099         1.235574
 O         1.379191         1.614745         1.976640
 C         2.548472        -0.618305         1.916594
 C         2.318797        -1.163572         0.452296
 H        -0.365992        -0.051954         0.940807
 H        -0.513747         0.981910        -0.531353
 H        -0.638834        -0.749540        -0.701199
 H         4.111366        -0.754158        -1.040757
 H         4.263632         1.362068         1.116660
 H         3.551901         2.000902        -0.332956
 H         1.648573         1.830234         2.874472
 H         3.570655        -0.710293         2.216656
 H         1.812804        -0.996877         2.641164
 H         2.044293        -2.224886         0.259090
