19
Iteration:  3871charge 0 multiplicity 1
 C        -0.095785        -0.320053         0.091997
 C         1.380249        -0.121625         0.050523
 O         2.022335        -0.038120        -1.357635
 C         3.267858        -0.176688        -0.523596
 C         3.395266         1.057841         0.395695
 C         2.102080         0.851630         1.144780
 O         1.554373         1.893983         1.872118
 C         2.517969        -0.482687         1.935318
 C         2.481904        -1.108580         0.579820
 H        -0.195970        -0.372760         1.235687
 H        -0.667690         0.514410        -0.456272
 H        -0.381881        -1.218866        -0.344263
 H         4.130040        -0.590891        -1.000529
 H         4.341429         1.238048         1.040248
 H         3.278060         2.045817        -0.048986
 H         0.832475         1.440163         2.375417
 H         3.483707        -0.251235         2.243996
 H         1.857775        -0.928207         2.699633
 H         2.505966        -2.187538         0.390448
