19
Iteration:  4537charge 0 multiplicity 1
 C        -0.089907        -0.326930         0.100607
 C         1.410198        -0.205390         0.078804
 O         1.967398         0.068408        -1.230469
 C         3.301338        -0.180900        -0.446536
 C         3.391649         1.102807         0.337698
 C         2.130165         0.871742         1.137945
 O         1.519875         1.862087         1.816166
 C         2.576877        -0.503612         1.890711
 C         2.458902        -1.187484         0.532732
 H        -0.485556        -0.614566         1.067951
 H        -0.459423         0.744934         0.113025
 H        -0.516075        -0.988219        -0.696054
 H         4.200996        -0.560204        -1.088490
 H         4.309835         1.287125         0.962566
 H         3.475580         2.026111        -0.322674
 H         0.664694         1.593801         2.158417
 H         3.617661        -0.457456         2.455852
 H         1.728115        -0.795441         2.664637
 H         2.522415        -2.187434         0.197131
