19
Iteration:   953charge 0 multiplicity 1
 C        -0.106293        -0.316999        -0.155309
 C         1.351699        -0.124826        -0.071745
 O         2.098862         0.145242        -1.252492
 C         3.297587        -0.160211        -0.414854
 C         3.403604         0.970091         0.583448
 C         2.141327         0.807873         1.237745
 O         1.738153         2.038354         1.926578
 C         2.335641        -0.752563         1.894053
 C         2.321787        -1.095919         0.437368
 H        -0.554149        -0.554000         0.868363
 H        -0.727572         0.468799        -0.610001
 H        -0.195898        -1.100038        -0.887684
 H         4.063962        -0.378610        -1.026147
 H         4.329450         0.860111         1.099634
 H         3.171228         1.963183         0.177967
 H         1.315139         1.799002         2.736718
 H         3.298353        -0.782203         2.441907
 H         1.541138        -1.192327         2.572502
 H         2.435068        -2.159762         0.180937
