19
Iteration:  2344charge 0 multiplicity 1
 C        -0.126795        -0.214728        -0.130160
 C         1.374596        -0.158238        -0.075452
 O         2.026915         0.118279        -1.273953
 C         3.190131        -0.184852        -0.447659
 C         3.370460         1.043534         0.496046
 C         2.100736         0.738381         1.287247
 O         1.709179         1.907175         1.967082
 C         2.492088        -0.582546         1.925915
 C         2.456483        -1.141701         0.447540
 H        -0.524288        -0.132546         0.911443
 H        -0.412728         0.681745        -0.800008
 H        -0.511677        -1.073649        -0.668386
 H         3.954817        -0.643882        -1.045524
 H         4.344961         0.860010         1.078031
 H         3.240954         2.022833        -0.031531
 H         1.086350         1.557943         2.673018
 H         3.479748        -0.532670         2.499713
 H         1.768050        -1.178284         2.544318
 H         2.513744        -2.181482         0.176941
