19
Iteration:  4743
 C        -0.047110        -0.271385         0.039534
 C         1.389519        -0.243613         0.021731
 O         2.023078         0.058188        -1.244955
 C         3.209631        -0.170232        -0.456541
 C         3.400309         1.105615         0.336637
 C         2.096204         0.766183         1.197872
 O         1.483617         1.878213         1.918334
 C         2.628450        -0.508053         1.931260
 C         2.438713        -1.185781         0.523575
 H        -0.584706        -0.445703         0.986532
 H        -0.414125         0.788341        -0.185264
 H        -0.455484        -1.154740        -0.543224
 H         4.161856        -0.528375        -1.016511
 H         4.275042         1.138048         1.119200
 H         3.308225         2.126839        -0.196333
 H         1.200817         2.536828         1.193969
 H         3.635848        -0.354589         2.322978
 H         1.950863        -1.014580         2.573035
 H         2.428365        -2.213677         0.317670
