19
Iteration:  4619
 C        -0.088608        -0.360743         0.163205
 C         1.425557        -0.095541         0.084668
 O         2.045958         0.103094        -1.222657
 C         3.325501        -0.181018        -0.528937
 C         3.449070         1.085082         0.288902
 C         2.145608         0.825712         1.115544
 O         1.395235         1.790781         1.813896
 C         2.545798        -0.519167         1.982718
 C         2.404351        -1.103718         0.556867
 H        -0.601696        -0.928194         1.004688
 H        -0.688757         0.424626        -0.198014
 H        -0.199206        -0.940453        -0.723428
 H         4.010536        -0.579637        -1.203573
 H         4.382257         0.970752         0.795950
 H         3.284181         1.871724        -0.372286
 H         2.008566         2.407672         2.336526
 H         3.387863        -0.542435         2.663927
 H         1.654198        -0.840337         2.560907
 H         2.217452        -2.171539         0.190186
