19
Iteration:  3030
 C        -0.087096        -0.308625         0.171920
 C         1.456852        -0.065700         0.031205
 O         2.057417         0.116788        -1.210911
 C         3.279379        -0.255768        -0.485751
 C         3.433730         1.067112         0.233935
 C         2.148523         0.759233         1.175092
 O         1.494616         1.780619         1.908039
 C         2.436801        -0.495734         1.946598
 C         2.416785        -1.096949         0.501673
 H        -0.426279        -0.567471         1.118918
 H        -0.588524         0.595560        -0.281806
 H        -0.244824        -1.142209        -0.563280
 H         4.075469        -0.783017        -1.041252
 H         4.284830         1.091509         0.913858
 H         3.324720         1.992852        -0.332222
 H         1.411567         2.456056         1.183085
 H         3.287572        -0.489351         2.709323
 H         1.598465        -0.776310         2.552730
 H         2.430366        -2.200999         0.166853
