19
Iteration:  3665charge 0 multiplicity 1
 C        -0.191226        -0.453644         0.083474
 C         1.361853        -0.165684        -0.037259
 O         2.053826         0.036313        -1.285729
 C         3.288854        -0.127094        -0.445091
 C         3.358994         1.138263         0.422903
 C         2.137558         0.811230         1.234821
 O         1.732154         1.930709         1.858885
 C         2.437373        -0.477944         1.874429
 C         2.411553        -1.131917         0.481518
 H        -0.290549        -0.641620         1.171641
 H        -0.920284         0.317401        -0.201448
 H        -0.346717        -1.264171        -0.533091
 H         4.156357        -0.513172        -0.934674
 H         4.337951         1.236772         0.913855
 H         3.156630         1.879269        -0.290924
 H         1.368799         1.748367         2.764269
 H         3.372880        -0.587297         2.404381
 H         1.576555        -0.857336         2.534943
 H         2.364878        -2.123178         0.086990
