19
Iteration:  2438charge 0 multiplicity 1
 C        -0.154516        -0.265436         0.080560
 C         1.376044        -0.099660         0.059025
 O         1.997540         0.253846        -1.195674
 C         3.245775        -0.172872        -0.462977
 C         3.461326         1.097167         0.475807
 C         2.209152         0.711574         1.157036
 O         1.645328         1.908073         1.716592
 C         2.445485        -0.715564         1.935302
 C         2.482717        -1.236293         0.492463
 H        -0.433783        -0.934307         0.977444
 H        -0.575923         0.694384        -0.016134
 H        -0.432433        -0.857005        -0.816573
 H         4.111485        -0.238260        -1.223410
 H         4.396591         1.100645         1.062126
 H         3.223562         2.015469        -0.139302
 H         0.805657         1.738327         2.191925
 H         3.267008        -0.869430         2.668727
 H         1.405677        -0.987925         2.295279
 H         2.169959        -2.292013         0.286277
