19
Iteration:  4971charge 0 multiplicity 1
 C        -0.185097        -0.363201         0.217349
 C         1.392808        -0.147074         0.116543
 O         1.999013         0.165522        -1.184896
 C         3.309817        -0.198691        -0.484326
 C         3.413813         1.115430         0.311798
 C         2.201720         0.719838         1.171317
 O         1.454638         1.893287         1.641618
 C         2.578918        -0.501220         1.916788
 C         2.536064        -1.186090         0.482978
 H        -0.319715        -0.787354         1.182165
 H        -0.763378         0.511111         0.027747
 H        -0.680024        -1.059963        -0.488077
 H         4.048661        -0.518821        -1.311963
 H         4.122129         1.244324         1.174386
 H         3.221682         1.979909        -0.271261
 H         1.388607         1.871443         2.622326
 H         3.527161        -0.478655         2.580799
 H         1.715973        -0.983050         2.466147
 H         2.510795        -2.203193         0.379928
