19
Iteration:   440
 C        -0.127995        -0.258370        -0.204513
 C         1.372732         0.061368         0.064412
 O         2.142630         0.261457        -1.195089
 C         3.200761        -0.234262        -0.487034
 C         3.679255         0.857489         0.502239
 C         2.189302         0.814287         1.308123
 O         1.482242         1.767831         1.998976
 C         2.346101        -0.613465         1.914927
 C         2.372135        -1.093595         0.388805
 H        -0.681130        -0.669274         0.609850
 H        -0.732540         0.558808        -0.520711
 H        -0.114649        -0.996068        -0.988785
 H         3.988540        -0.747362        -1.040732
 H         4.502641         0.680586         1.191649
 H         3.891298         1.775889        -0.035212
 H         0.965676         2.234740         1.358879
 H         3.245779        -0.868962         2.445127
 H         1.412021        -0.828955         2.462661
 H         2.147313        -2.220624         0.294038
