19
Iteration:  4349charge 0 multiplicity 1
 C        -0.026769        -0.375645         0.133778
 C         1.395479        -0.140532         0.076009
 O         2.000470         0.182319        -1.217576
 C         3.157319        -0.241990        -0.496740
 C         3.453493         1.068037         0.330865
 C         2.235071         0.799323         1.176493
 O         1.354246         1.836353         1.715131
 C         2.579966        -0.433971         1.925996
 C         2.482875        -1.242221         0.520659
 H        -0.483080        -0.730339         1.139182
 H        -0.503671         0.609436         0.163931
 H        -0.303978        -1.002361        -0.677149
 H         3.905312        -0.601513        -1.193293
 H         4.364261         1.201821         0.976975
 H         3.411724         1.992226        -0.160222
 H         1.741161         2.086101         2.551511
 H         3.492764        -0.310083         2.611984
 H         1.752406        -0.730209         2.628958
 H         2.615194        -2.230820         0.451304
