19
Iteration:  4330charge 0 multiplicity 1
 C        -0.064401        -0.368182         0.137470
 C         1.411009        -0.112314         0.136603
 O         1.955826         0.125984        -1.173224
 C         3.337140        -0.216700        -0.504591
 C         3.419497         1.058501         0.302069
 C         2.115171         0.802220         1.161705
 O         1.427863         1.838182         1.725382
 C         2.498248        -0.535222         1.913909
 C         2.524714        -1.060680         0.512995
 H        -0.351770        -0.758571         1.149754
 H        -0.738740         0.554589        -0.148675
 H        -0.246865        -1.227601        -0.525174
 H         4.176249        -0.576899        -1.185490
 H         4.300363         1.157660         0.945886
 H         3.429678         1.841346        -0.495434
 H         2.002958         2.154161         2.467831
 H         3.400796        -0.555521         2.577580
 H         1.742812        -0.937869         2.597003
 H         2.246354        -2.106038         0.325382
