19
Iteration:  3934
 C        -0.107611        -0.278710         0.090869
 C         1.414367        -0.173346         0.188623
 O         1.985275         0.043037        -1.181601
 C         3.240499        -0.145581        -0.555337
 C         3.428361         0.996084         0.471283
 C         2.156382         0.752215         1.165024
 O         1.393970         1.911694         1.641557
 C         2.577323        -0.496423         1.915770
 C         2.554089        -1.090618         0.468651
 H        -0.485956        -0.721210         1.043885
 H        -0.488104         0.771176        -0.170020
 H        -0.629952        -0.989651        -0.550820
 H         4.073493        -0.465261        -1.168876
 H         4.408999         0.824012         0.973332
 H         3.460512         2.002190         0.046475
 H         1.613863         1.961095         2.561392
 H         3.541762        -0.560131         2.515168
 H         1.845025        -0.990769         2.583804
 H         2.430196        -2.088729         0.328302
