19
Iteration:   674charge 0 multiplicity 1
 C        -0.167615        -0.178039        -0.173716
 C         1.344651        -0.182188        -0.037428
 O         2.057298         0.242138        -1.163273
 C         3.313383        -0.201074        -0.352985
 C         3.467595         0.945832         0.549613
 C         2.099598         0.715042         1.177713
 O         1.627779         1.946671         1.830753
 C         2.433539        -0.678637         1.904580
 C         2.462335        -1.149686         0.468102
 H        -0.744440        -0.566526         0.651929
 H        -0.525652         0.849762        -0.345986
 H        -0.453284        -0.574551        -1.159680
 H         4.022144        -0.633054        -1.201904
 H         4.323638         0.682378         1.223718
 H         3.513653         2.035496         0.307230
 H         1.287978         1.700600         2.744487
 H         3.298064        -0.820273         2.572838
 H         1.553757        -1.000308         2.401611
 H         2.332482        -2.162457         0.164826
