19
Iteration:  3262charge 0 multiplicity 1
 C        -0.013401        -0.185701         0.045048
 C         1.412845        -0.307128         0.120206
 O         1.929623         0.089603        -1.190699
 C         3.303608        -0.160207        -0.449710
 C         3.384065         1.108145         0.313234
 C         2.163362         0.794851         1.225984
 O         1.470426         1.812483         1.837742
 C         2.515302        -0.547856         1.854279
 C         2.514607        -1.188300         0.557513
 H        -0.713724        -0.435971         0.926990
 H        -0.370857         0.841734        -0.159872
 H        -0.426983        -0.759648        -0.746309
 H         4.109825        -0.544361        -1.124061
 H         4.304558         1.357623         0.886755
 H         3.112329         1.895625        -0.414945
 H         1.619172         2.653569         1.324094
 H         3.340031        -0.633756         2.533437
 H         1.624852        -0.959799         2.451098
 H         2.638088        -2.243017         0.449144
