19
Iteration:  3638
 C        -0.121908        -0.493957         0.083571
 C         1.406230        -0.174911        -0.001330
 O         1.967803         0.120701        -1.228846
 C         3.237045        -0.165231        -0.579510
 C         3.430231         1.026331         0.431439
 C         2.086841         0.834842         1.206307
 O         1.685692         2.020859         1.863623
 C         2.403411        -0.523361         1.939990
 C         2.545645        -1.110185         0.523975
 H        -0.382763        -0.509533         1.129287
 H        -0.728221         0.333763        -0.346346
 H        -0.387995        -1.316873        -0.662579
 H         4.011231        -0.481514        -1.360702
 H         4.336317         0.852171         1.081123
 H         3.626916         1.896087        -0.298896
 H         0.909289         1.800572         2.422973
 H         3.350270        -0.655255         2.519477
 H         1.600006        -0.984952         2.455750
 H         2.369337        -2.130493         0.121088
