19
Iteration:  4756charge 0 multiplicity 1
 C        -0.111621        -0.287366         0.051823
 C         1.385775        -0.217269         0.153630
 O         2.041545         0.106478        -1.190061
 C         3.289633        -0.230579        -0.514231
 C         3.304448         1.063130         0.387464
 C         2.125492         0.798018         1.204268
 O         1.442072         1.923236         1.866513
 C         2.597927        -0.545336         1.891887
 C         2.549181        -1.215972         0.467226
 H        -0.347205        -0.584467         1.015346
 H        -0.472970         0.744335        -0.182615
 H        -0.541218        -0.860866        -0.804506
 H         4.099118        -0.436648        -1.178420
 H         4.214608         1.258201         0.951419
 H         3.148458         1.841655        -0.459649
 H         1.599972         2.680256         1.329521
 H         3.511606        -0.600538         2.408481
 H         1.878444        -0.828215         2.585713
 H         2.482902        -2.289977         0.286012
