19
Iteration:  4527
 C        -0.123385        -0.321102         0.148025
 C         1.377854        -0.092848         0.001321
 O         2.055307         0.042511        -1.203167
 C         3.265490        -0.223031        -0.530325
 C         3.427152         1.100153         0.361763
 C         2.051316         0.769348         1.116851
 O         1.530485         1.879289         1.863121
 C         2.575420        -0.511167         1.936352
 C         2.507565        -1.116909         0.531717
 H        -0.305845        -0.695313         1.112538
 H        -0.717033         0.592895        -0.183914
 H        -0.474171        -1.072769        -0.617672
 H         4.075345        -0.519126        -1.292949
 H         4.287083         1.051759         0.997727
 H         3.296243         1.998420        -0.305982
 H         0.600293         1.734747         1.938689
 H         3.605362        -0.178354         2.314630
 H         1.865991        -0.934419         2.775971
 H         2.426682        -2.198849         0.384102
