19
Iteration:  4934charge 0 multiplicity 1
 C        -0.073304        -0.307498         0.132977
 C         1.413485        -0.153479         0.073123
 O         1.948281         0.020099        -1.274066
 C         3.293481        -0.206515        -0.617515
 C         3.362628         1.099058         0.382952
 C         2.115011         0.815671         1.242398
 O         1.416012         1.863012         1.823851
 C         2.568076        -0.477174         1.938999
 C         2.599442        -1.144932         0.483736
 H        -0.321720        -0.363846         1.268034
 H        -0.690583         0.551414        -0.219681
 H        -0.242907        -1.302318        -0.228427
 H         4.110727        -0.675438        -1.246247
 H         4.362534         1.021092         0.972661
 H         3.313808         2.090287        -0.209845
 H         1.957789         2.425089         2.338138
 H         3.352288        -0.476333         2.644214
 H         1.674468        -0.852767         2.411502
 H         2.307151        -2.270553         0.295915
