19
Iteration:  3957charge 0 multiplicity 1
 C        -0.126009        -0.363870        -0.003770
 C         1.354961        -0.132672         0.075733
 O         1.989868         0.094268        -1.234425
 C         3.299637        -0.211482        -0.425329
 C         3.439774         1.106488         0.303704
 C         2.184505         0.846076         1.158051
 O         1.425586         1.887916         1.804182
 C         2.586241        -0.544080         1.941456
 C         2.441311        -1.182966         0.555531
 H        -0.314345        -0.893819         0.993103
 H        -0.690306         0.636185        -0.043353
 H        -0.622222        -1.032940        -0.665318
 H         4.062911        -0.649836        -1.034447
 H         4.301870         1.144279         1.052779
 H         3.563128         1.940115        -0.361809
 H         2.000953         2.333621         2.509819
 H         3.470758        -0.468096         2.591521
 H         1.837011        -0.951603         2.674667
 H         2.574237        -2.201293         0.365158
