19
Iteration:  1947charge 0 multiplicity 1
 C        -0.046793        -0.210170        -0.003617
 C         1.448386        -0.141581         0.034066
 O         2.129968         0.348972        -1.230959
 C         3.294277        -0.128736        -0.543245
 C         3.529781         1.049448         0.470050
 C         2.101220         0.658325         1.188916
 O         1.519275         1.779052         1.992617
 C         2.280425        -0.694081         1.909477
 C         2.394127        -1.224695         0.443929
 H        -0.480994        -0.043525         1.034361
 H        -0.422056         0.492252        -0.709396
 H        -0.383133        -1.256939        -0.340222
 H         3.972073        -0.616731        -1.239691
 H         4.286160         0.929640         1.286810
 H         3.474962         2.041956         0.017293
 H         1.470353         2.575871         1.352998
 H         3.079291        -0.764572         2.651697
 H         1.353434        -1.094547         2.268977
 H         2.255835        -2.231511        -0.026096
