19
Iteration:  3097charge 0 multiplicity 1
 C        -0.061497        -0.214347         0.118471
 C         1.369119        -0.202757         0.036121
 O         1.987452         0.100757        -1.278698
 C         3.329116        -0.241472        -0.475840
 C         3.327393         1.161096         0.338185
 C         2.194403         0.752199         1.230309
 O         1.451800         1.842721         1.790822
 C         2.531350        -0.553513         1.941383
 C         2.495427        -1.212743         0.558465
 H        -0.377827        -0.608189         1.096898
 H        -0.381034         0.832800         0.054620
 H        -0.526887        -0.807382        -0.687751
 H         4.053174        -0.702201        -1.137635
 H         4.278269         1.193475         0.812600
 H         3.045034         2.057227        -0.219943
 H         2.026214         2.585712         1.801910
 H         3.308666        -0.715104         2.677325
 H         1.684787        -0.699060         2.567269
 H         2.637578        -2.320340         0.342930
