19
Iteration:  1979charge 0 multiplicity 1
 C        -0.134630        -0.286265         0.038090
 C         1.347808        -0.057069         0.030676
 O         2.110248         0.254456        -1.272188
 C         3.311725        -0.113934        -0.476798
 C         3.538973         0.985791         0.654381
 C         2.084284         0.681418         1.196292
 O         1.497857         1.903323         1.867617
 C         2.394522        -0.699404         1.843516
 C         2.415442        -1.165025         0.334875
 H        -0.661871        -0.461159         1.039188
 H        -0.755977         0.452808        -0.414354
 H        -0.282818        -1.258088        -0.603384
 H         4.122781        -0.567513        -1.046198
 H         4.276526         0.683105         1.439244
 H         3.765223         1.982937         0.254647
 H         2.217870         2.410800         2.230987
 H         3.322268        -0.720759         2.422436
 H         1.561199        -1.227792         2.323504
 H         2.209678        -2.175625        -0.158001
