19
Iteration:   510charge 0 multiplicity 1
 C        -0.017403        -0.059240        -0.063464
 C         1.397143        -0.094142        -0.031891
 O         2.155606         0.134324        -1.270950
 C         3.330459        -0.216196        -0.391397
 C         3.445105         1.035890         0.485735
 C         2.168707         0.748358         1.268508
 O         1.439503         1.771381         1.936829
 C         2.302493        -0.696798         1.900340
 C         2.342601        -1.178946         0.415741
 H        -0.527823        -0.311293         0.865056
 H        -0.330556         0.966782        -0.210867
 H        -0.483371        -0.676675        -0.808326
 H         4.142050        -0.468973        -1.098548
 H         4.408752         1.123343         1.010462
 H         3.361460         1.975096        -0.099830
 H         2.206203         2.184742         2.353453
 H         3.231378        -0.832328         2.500234
 H         1.456840        -1.066936         2.433309
 H         2.385380        -2.078547        -0.128768
