19
Iteration:   309
 C        -0.038040        -0.246140        -0.094181
 C         1.447504        -0.118024        -0.014042
 O         2.061105         0.169087        -1.280298
 C         3.305969        -0.133120        -0.520300
 C         3.470098         0.924626         0.599342
 C         2.068146         0.758068         1.275814
 O         1.641702         1.937417         1.883218
 C         2.294982        -0.634057         1.908107
 C         2.392678        -1.134032         0.445058
 H        -0.532310        -0.603776         0.788021
 H        -0.378564         0.741838        -0.297043
 H        -0.435129        -0.821987        -0.916692
 H         4.262597        -0.421513        -1.043786
 H         4.227671         0.631364         1.325328
 H         3.620262         1.953982         0.279878
 H         1.047356         1.698485         2.599403
 H         3.099275        -0.797680         2.579329
 H         1.374219        -1.050681         2.330466
 H         2.186291        -2.253135        -0.022708
