19
Iteration:   935
 C        -0.065699        -0.246251        -0.088298
 C         1.391639        -0.042027         0.068969
 O         2.096588         0.191767        -1.235800
 C         3.277582        -0.230636        -0.466426
 C         3.478276         1.056760         0.437079
 C         2.116153         0.734823         1.239475
 O         1.637732         1.861207         1.918296
 C         2.289501        -0.611897         1.881278
 C         2.450917        -1.194387         0.468055
 H        -0.456657        -0.267239         0.959683
 H        -0.471261         0.721280        -0.460768
 H        -0.346239        -1.115566        -0.787916
 H         4.174581        -0.613403        -1.039610
 H         4.294666         1.025808         1.195319
 H         3.536190         1.915265        -0.264145
 H         0.827708         1.684092         2.399522
 H         2.960935        -0.903742         2.766761
 H         1.324293        -0.956650         2.253117
 H         2.162597        -2.147889         0.048076
