19
Iteration:   432
 C        -0.079149        -0.196138        -0.164241
 C         1.339754         0.007960         0.074525
 O         2.123951         0.272592        -1.189687
 C         3.361437        -0.253065        -0.420295
 C         3.610840         0.883758         0.454670
 C         2.202232         0.788996         1.251883
 O         1.472697         1.768121         1.993936
 C         2.343262        -0.668276         1.905463
 C         2.312919        -1.099068         0.424620
 H        -0.616610        -0.573665         0.692504
 H        -0.673318         0.585669        -0.583174
 H        -0.092580        -0.938307        -0.944451
 H         4.073410        -0.669495        -1.087225
 H         4.490601         0.776630         1.069849
 H         3.578057         1.773827        -0.165233
 H         0.975156         2.290885         1.390288
 H         3.163106        -0.717748         2.581188
 H         1.460268        -0.886963         2.477465
 H         2.011755        -2.077817        -0.132831
