19
Iteration:   274
 C        -0.165431        -0.302874        -0.094680
 C         1.350608        -0.102318        -0.024851
 O         2.177060         0.228987        -1.193914
 C         3.365221        -0.209015        -0.374066
 C         3.420070         1.021266         0.451718
 C         2.145571         0.778720         1.199723
 O         1.704063         1.849195         2.015178
 C         2.297612        -0.594751         1.843211
 C         2.372419        -1.156227         0.424302
 H        -0.644136        -0.651995         0.817909
 H        -0.485208         0.699898        -0.275583
 H        -0.413912        -0.843435        -0.977447
 H         4.199904        -0.713762        -0.949014
 H         4.344709         1.175534         1.031791
 H         3.310025         1.898506        -0.232191
 H         0.760753         1.896741         1.854557
 H         3.018247        -0.986899         2.592602
 H         1.327090        -0.909213         2.218537
 H         2.073916        -2.247182         0.153833
