19
Iteration:  2831charge 0 multiplicity 1
 C        -0.157886        -0.378014        -0.119426
 C         1.337499        -0.173549         0.065232
 O         2.017661         0.071469        -1.228872
 C         3.197299        -0.151947        -0.553752
 C         3.416017         1.107561         0.291386
 C         2.142214         0.813955         1.205726
 O         1.609549         1.865467         1.949598
 C         2.524826        -0.516919         2.056897
 C         2.450047        -1.141837         0.576222
 H        -0.547922        -0.879329         0.847922
 H        -0.640733         0.576355        -0.238846
 H        -0.299970        -1.002913        -0.981812
 H         4.044459        -0.451969        -1.178013
 H         4.325993         0.975432         0.864413
 H         3.244236         1.930210        -0.402875
 H         2.231949         2.593495         1.978273
 H         3.497656        -0.473122         2.594606
 H         1.850382        -1.019607         2.772697
 H         2.338816        -2.171278         0.419511
