19
Iteration:  3613charge 0 multiplicity 1
 C        -0.092605        -0.391874         0.059983
 C         1.382028        -0.096812         0.123601
 O         1.970667         0.193353        -1.196862
 C         3.172835        -0.240190        -0.486640
 C         3.422037         1.120732         0.353562
 C         2.241374         0.774551         1.196377
 O         1.598453         1.866588         1.763210
 C         2.559678        -0.556800         1.940144
 C         2.428904        -1.132967         0.560906
 H        -0.651255        -0.578416         0.984656
 H        -0.542968         0.470365        -0.412787
 H        -0.136662        -1.151919        -0.802301
 H         3.903878        -0.607556        -1.138250
 H         4.296479         1.162561         1.029835
 H         3.414268         1.946222        -0.299561
 H         0.622266         1.620659         1.737593
 H         3.504015        -0.688489         2.489897
 H         1.707577        -0.852377         2.550954
 H         2.415686        -2.211894         0.297469
