19
Iteration:   221
 C        -0.121180        -0.043013        -0.140372
 C         1.388016        -0.151434         0.095385
 O         2.039346         0.212122        -1.124558
 C         3.320442        -0.172996        -0.483830
 C         3.562301         1.038443         0.467698
 C         2.169910         0.728134         1.209142
 O         1.484380         1.789183         1.833207
 C         2.401121        -0.620210         1.960081
 C         2.468203        -1.282975         0.457387
 H        -0.730988        -0.076300         0.746096
 H        -0.221128         0.962590        -0.492113
 H        -0.412418        -0.647390        -0.973573
 H         3.942310        -0.695618        -1.242030
 H         4.409370         1.016039         1.132254
 H         3.538651         1.926453        -0.170531
 H         0.619867         1.498653         2.110044
 H         3.222769        -0.768278         2.600231
 H         1.549807        -0.966343         2.505422
 H         2.447103        -2.439971         0.136917
