19
Iteration:  1373charge 0 multiplicity 1
 C        -0.086404        -0.069888         0.125106
 C         1.409856        -0.034118        -0.003451
 O         2.139531         0.257169        -1.200467
 C         3.334700        -0.244145        -0.423864
 C         3.479820         1.020085         0.424012
 C         2.149173         0.676471         1.159038
 O         1.357347         1.719821         1.726507
 C         2.427576        -0.680563         1.857689
 C         2.450145        -1.123964         0.513976
 H        -0.316114        -0.174001         1.209211
 H        -0.457252         0.861708        -0.451081
 H        -0.520855        -0.917898        -0.466127
 H         4.150193        -0.701706        -1.004097
 H         4.354495         0.966294         1.082167
 H         3.473892         1.957262        -0.113783
 H         1.207569         1.554081         2.705858
 H         3.319281        -0.730724         2.570971
 H         1.606509        -1.043536         2.480904
 H         2.259146        -2.146820         0.200437
