19
Iteration:  3356charge 0 multiplicity 1
 C        -0.028692        -0.324715         0.106464
 C         1.362124        -0.234385        -0.023593
 O         1.982895         0.072091        -1.259840
 C         3.222232        -0.132270        -0.466330
 C         3.423005         1.058472         0.462371
 C         2.113707         0.804815         1.156909
 O         1.533559         1.866623         1.841976
 C         2.437695        -0.514714         1.912790
 C         2.528243        -1.167734         0.499881
 H        -0.132218        -0.307462         1.146000
 H        -0.516643         0.685281        -0.088904
 H        -0.558624        -1.070321        -0.574432
 H         4.017347        -0.458382        -1.071952
 H         4.276464         0.998622         1.162046
 H         3.417659         1.999669        -0.135359
 H         1.969596         2.728038         1.560153
 H         3.443225        -0.360558         2.453857
 H         1.777825        -1.076762         2.538152
 H         2.341140        -2.257540         0.382282
