19
Iteration:  4377
 C        -0.156500        -0.297533         0.201537
 C         1.384834        -0.096099         0.137807
 O         1.998419        -0.023137        -1.242131
 C         3.286474        -0.192477        -0.470037
 C         3.453014         1.120288         0.354353
 C         2.126661         0.759257         1.134108
 O         1.377767         1.860988         1.722394
 C         2.616111        -0.522788         1.909157
 C         2.558878        -1.089366         0.472716
 H        -0.707592        -0.796692         0.991724
 H        -0.516233         0.763616         0.033400
 H        -0.403525        -0.795780        -0.804276
 H         4.062539        -0.548214        -1.152031
 H         4.266176         1.150613         1.093238
 H         3.235164         2.172739        -0.100599
 H         1.903100         2.012226         2.487263
 H         3.441369        -0.397991         2.595557
 H         1.917201        -1.071167         2.545956
 H         2.547960        -2.293399         0.212558
