19
Iteration:  4206
 C        -0.070235        -0.282842         0.113653
 C         1.421720        -0.192763         0.050874
 O         2.005302         0.071379        -1.206263
 C         3.256258        -0.165464        -0.430382
 C         3.408543         1.091952         0.329794
 C         2.137016         0.781734         1.194426
 O         1.535334         1.892289         1.735506
 C         2.469371        -0.525436         1.948141
 C         2.495057        -1.152298         0.462926
 H        -0.291217        -0.492467         1.223638
 H        -0.518717         0.725466         0.178130
 H        -0.407871        -1.120523        -0.576877
 H         4.079663        -0.473109        -1.036526
 H         4.315461         1.304681         0.959931
 H         3.396103         1.959526        -0.316886
 H         0.694893         1.581006         2.147351
 H         3.465604        -0.545209         2.569369
 H         1.650886        -1.057847         2.577221
 H         2.559159        -2.176536         0.236593
