19
Iteration:  4901charge 0 multiplicity 1
 C        -0.075583        -0.313361         0.046640
 C         1.370487        -0.213044         0.071300
 O         1.966542         0.091626        -1.180764
 C         3.258836        -0.208811        -0.452716
 C         3.392406         1.192717         0.291506
 C         2.147062         0.834655         1.137262
 O         1.509191         1.744260         1.927416
 C         2.639543        -0.461343         1.860227
 C         2.403369        -1.157368         0.565015
 H        -0.372203        -0.307584         1.143607
 H        -0.543276         0.366659        -0.691996
 H        -0.400175        -1.268218        -0.348978
 H         4.205725        -0.663772        -0.879778
 H         4.310461         1.068133         0.922164
 H         3.276039         1.992804        -0.495576
 H         1.378884         2.614655         1.417119
 H         3.595174        -0.552285         2.307538
 H         1.918244        -0.625843         2.642341
 H         2.386176        -2.304021         0.284250
