19
Iteration:   387
 C        -0.189743         0.059537        -0.039954
 C         1.412018        -0.125455        -0.082616
 O         2.131007         0.037184        -1.289397
 C         3.439591        -0.143031        -0.433334
 C         3.452459         1.026946         0.517218
 C         2.013933         0.683414         1.237343
 O         1.444190         1.735101         1.975901
 C         2.363048        -0.663942         1.956278
 C         2.535731        -1.155719         0.370554
 H        -0.615923         0.169204         0.915649
 H        -0.309518         1.029461        -0.434125
 H        -0.869449        -0.415008        -0.709700
 H         4.358910        -0.425784        -0.917570
 H         4.190281         0.810500         1.276965
 H         3.597020         1.989637         0.059723
 H         1.994469         2.476634         1.776790
 H         3.160452        -0.855900         2.593266
 H         1.519009        -1.185388         2.413544
 H         2.450824        -2.362230         0.206360
