19
Iteration:  2482
 C        -0.207871        -0.445537        -0.029501
 C         1.339756        -0.055027         0.009064
 O         2.031045         0.139954        -1.315095
 C         3.235540        -0.166518        -0.485193
 C         3.467422         0.990526         0.471801
 C         2.198532         0.862115         1.213430
 O         1.702406         2.000404         2.025569
 C         2.457071        -0.513682         1.857592
 C         2.399532        -1.213739         0.463979
 H        -0.249910        -1.287585         0.789848
 H        -1.032519         0.212454         0.108766
 H        -0.376894        -0.972096        -0.972220
 H         4.001132        -0.757114        -1.086697
 H         4.272756         0.636431         1.117363
 H         3.664014         1.889525        -0.157180
 H         0.794209         1.762016         2.301520
 H         3.480307        -0.484072         2.364093
 H         1.677969        -0.742638         2.615551
 H         2.366110        -2.203774         0.009128
