19
Iteration:   938
 C        -0.065129        -0.248731        -0.091861
 C         1.397848        -0.038236         0.040669
 O         2.091932         0.175035        -1.235958
 C         3.279691        -0.201409        -0.457011
 C         3.460633         1.055475         0.436269
 C         2.102914         0.736427         1.266909
 O         1.656489         1.902666         1.919840
 C         2.288844        -0.641155         1.885736
 C         2.430048        -1.203320         0.460960
 H        -0.492043        -0.398540         0.877994
 H        -0.492034         0.667887        -0.501016
 H        -0.270082        -1.115738        -0.708433
 H         4.227310        -0.608813        -1.041627
 H         4.291744         1.019995         1.185476
 H         3.603774         1.916735        -0.232765
 H         0.900143         1.690448         2.482865
 H         2.994033        -0.927913         2.639803
 H         1.327029        -0.992907         2.253598
 H         2.211711        -2.214323         0.073814
