19
Iteration:  2231charge 0 multiplicity 1
 C         0.021799        -0.002459        -0.034190
 C         1.422024        -0.095178         0.063507
 O         2.108827         0.140786        -1.180309
 C         3.203041        -0.164926        -0.501661
 C         3.396096         1.025188         0.392252
 C         2.129953         0.722777         1.226675
 O         1.437270         1.718086         1.878399
 C         2.487576        -0.594942         1.927819
 C         2.462485        -1.233201         0.450150
 H        -0.536665        -0.471385         0.867888
 H        -0.246159         1.046112        -0.077405
 H        -0.448260        -0.372558        -1.018441
 H         4.011576        -0.581019        -1.185919
 H         4.281666         1.259557         0.966282
 H         3.224005         1.844473        -0.348844
 H         1.065930         1.436052         2.724138
 H         3.516625        -0.697481         2.412214
 H         1.625222        -1.007252         2.520480
 H         2.300821        -2.307958         0.147776
