19
Iteration:  2239
 C        -0.058399        -0.011176        -0.014437
 C         1.416794        -0.137707         0.063147
 O         2.082502         0.149248        -1.223065
 C         3.271108        -0.192436        -0.543727
 C         3.454226         1.089973         0.436786
 C         2.112755         0.684367         1.183531
 O         1.463277         1.769007         1.874447
 C         2.449166        -0.630830         1.944131
 C         2.461423        -1.221502         0.444215
 H        -0.418968        -0.560504         0.831690
 H        -0.192897         1.060704         0.199613
 H        -0.416445        -0.499519        -0.925355
 H         4.022113        -0.551619        -1.249095
 H         4.296469         1.272418         1.083820
 H         3.342653         1.986953        -0.112464
 H         1.020636         1.410053         2.674887
 H         3.380084        -0.561267         2.537386
 H         1.639590        -1.123166         2.526751
 H         2.316088        -2.315712         0.312317
