19
Iteration:  1313charge 0 multiplicity 1
 C        -0.181807        -0.349779        -0.237923
 C         1.320988        -0.136033        -0.000265
 O         2.022054         0.168070        -1.246326
 C         3.273926        -0.167599        -0.518068
 C         3.446488         1.027470         0.531632
 C         2.151182         0.739553         1.267053
 O         1.680009         1.903103         1.984308
 C         2.323246        -0.549833         1.969924
 C         2.526723        -1.161846         0.464522
 H        -0.866547        -0.618582         0.542986
 H        -0.699109         0.488273        -0.584115
 H        -0.219052        -1.164905        -0.953121
 H         4.096867        -0.416078        -1.216298
 H         4.280030         0.862206         1.263211
 H         3.437318         2.073374         0.097724
 H         2.384142         2.049555         2.668451
 H         3.104794        -0.507569         2.661481
 H         1.342354        -0.755124         2.392351
 H         2.583031        -2.190062         0.070370
