19
Iteration:  2608
 C        -0.105472        -0.371169         0.019535
 C         1.342478        -0.114108         0.101034
 O         1.967514         0.131008        -1.182123
 C         3.244441        -0.129848        -0.538872
 C         3.434583         1.034536         0.430184
 C         2.227211         0.773259         1.240665
 O         1.691155         1.910683         1.821527
 C         2.406175        -0.561346         1.899008
 C         2.468773        -1.158259         0.442283
 H        -0.439655        -0.514627         1.054251
 H        -0.627083         0.576887        -0.449446
 H        -0.358547        -1.341008        -0.556379
 H         4.089355        -0.523623        -1.132668
 H         4.372136         1.047497         0.999005
 H         3.390527         2.107024         0.131602
 H         0.688911         1.978325         1.795636
 H         3.330549        -0.685326         2.524361
 H         1.448146        -0.914924         2.408200
 H         2.362164        -2.288771         0.339528
