19
Iteration:  3806
 C        -0.073718        -0.490210        -0.042732
 C         1.386615        -0.163835         0.056565
 O         1.990005         0.123705        -1.248690
 C         3.190137        -0.182048        -0.503603
 C         3.392923         1.026088         0.359413
 C         2.111283         0.826745         1.183894
 O         1.634825         2.020863         1.837457
 C         2.549085        -0.493114         1.968513
 C         2.427085        -1.158421         0.580926
 H        -0.548949        -0.737715         0.977496
 H        -0.794713         0.397143        -0.209225
 H        -0.282923        -1.249325        -0.749840
 H         4.093638        -0.448555        -1.009629
 H         4.298821         0.913872         1.046664
 H         3.364832         1.930298        -0.247822
 H         1.055207         1.758526         2.600879
 H         3.548513        -0.324921         2.313683
 H         1.898110        -0.929526         2.777954
 H         2.575550        -2.216063         0.308802
