19
Iteration:   316
 C        -0.093547        -0.236910        -0.118975
 C         1.399854        -0.110475         0.038779
 O         2.123143         0.195564        -1.247106
 C         3.277475        -0.180373        -0.443381
 C         3.459444         0.911095         0.585156
 C         2.144500         0.742611         1.285493
 O         1.570339         1.920080         1.854782
 C         2.361291        -0.637420         1.824801
 C         2.377426        -1.142425         0.412885
 H        -0.582295        -0.514888         0.848978
 H        -0.533240         0.774779        -0.295168
 H        -0.498371        -0.854169        -0.934965
 H         4.214433        -0.309341        -1.013165
 H         4.234939         0.552249         1.307097
 H         3.756581         1.900618         0.160706
 H         1.125123         1.941322         2.691015
 H         3.284500        -0.710413         2.497796
 H         1.485896        -0.923895         2.427969
 H         2.309604        -2.075808         0.035648
