19
Iteration:   962charge 0 multiplicity 1
 C        -0.187576        -0.409558        -0.260686
 C         1.283527        -0.111357        -0.084692
 O         2.113424         0.169774        -1.283731
 C         3.236267        -0.165166        -0.417636
 C         3.427429         0.994501         0.641154
 C         2.083352         0.763858         1.322167
 O         1.799440         2.048450         1.909414
 C         2.402280        -0.665348         1.914163
 C         2.359489        -1.127289         0.451853
 H        -0.471085        -0.612064         0.771958
 H        -0.609299         0.562637        -0.470103
 H        -0.458407        -1.203097        -0.889228
 H         4.175273        -0.504393        -0.911638
 H         4.256722         0.949814         1.356759
 H         3.492267         1.966752         0.120703
 H         1.518003         1.874329         2.795092
 H         3.355157        -0.789028         2.340498
 H         1.700655        -1.201821         2.588005
 H         2.188640        -2.098996        -0.042277
