19
Iteration:  1867
 C        -0.153949        -0.044080        -0.118243
 C         1.455005        -0.091380         0.095623
 O         2.088589         0.220903        -1.226212
 C         3.309230        -0.200241        -0.390531
 C         3.409876         1.122830         0.403165
 C         2.152468         0.660390         1.176525
 O         1.543670         1.636319         2.003257
 C         2.369308        -0.638340         1.910704
 C         2.477621        -1.221317         0.463104
 H        -0.738585        -0.455462         0.695386
 H        -0.334364         1.100264        -0.150979
 H        -0.266508        -0.562299        -1.085560
 H         4.146691        -0.400018        -1.106802
 H         4.372387         1.206108         0.885870
 H         3.258374         1.919765        -0.404191
 H         1.122798         2.441866         1.523133
 H         3.185435        -0.760212         2.637234
 H         1.462771        -1.197590         2.365669
 H         2.450380        -2.290761         0.206899
