19
Iteration:  1746
 C        -0.160999        -0.021033        -0.128528
 C         1.376662        -0.121272        -0.111103
 O         2.100466         0.157526        -1.283044
 C         3.337609        -0.270950        -0.445056
 C         3.454351         1.098302         0.459804
 C         2.084542         0.725119         1.263939
 O         1.415293         1.700011         1.997512
 C         2.584258        -0.557721         1.924025
 C         2.346329        -1.216389         0.488582
 H        -0.554735        -0.099429         0.898807
 H        -0.339177         1.047824        -0.515072
 H        -0.473556        -0.831644        -0.702833
 H         4.356685        -0.621581        -0.743248
 H         4.182086         0.984783         1.235545
 H         3.443559         2.020841        -0.162097
 H         1.913888         1.960000         2.784356
 H         3.578577        -0.855947         2.083731
 H         1.859545        -0.975155         2.652401
 H         2.503751        -2.207324         0.085143
