19
Iteration:   268charge 0 multiplicity 1
 O         1.646506         2.808221         1.846851
 C         0.669304         1.766179         1.866426
 C         0.511763         0.838297         3.145192
 C        -0.346073         0.078920         2.180441
 C        -1.306799         0.957628         1.254389
 C        -0.480929         0.610489        -0.040064
 C         0.593925         0.393099         0.999193
 O         1.848430        -0.261041         0.784180
 C        -0.827494         2.268116         1.755213
 H         1.612572         3.471652         1.139028
 H         1.383907         0.149617         3.414984
 H         0.182487         1.297736         4.111856
 H        -0.736165        -1.095557         2.321019
 H        -2.451737         0.811158         1.357075
 H        -0.867541        -0.371826        -0.459855
 H        -0.403730         1.451816        -0.699519
 H         2.453026         0.161060         1.351809
 H        -0.968584         3.233410         1.227412
 H        -1.301355         2.568955         2.721354
