19
Iteration:  1781
 O         1.606782         2.788499         1.651017
 C         0.646786         1.833665         1.897790
 C         0.522053         0.889605         3.236191
 C        -0.303135         0.001541         2.185837
 C        -1.288635         0.865593         1.368355
 C        -0.571386         0.677615        -0.061298
 C         0.650378         0.455395         1.050652
 O         1.851032        -0.202235         0.923074
 C        -0.788623         2.290480         1.640454
 H         2.312254         2.178670         1.295458
 H         1.581427         0.566696         3.629951
 H        -0.020739         1.390594         4.051448
 H        -0.485718        -1.125938         2.305530
 H        -2.480006         0.678037         1.491856
 H        -0.787273        -0.251851        -0.782063
 H        -0.629322         1.737502        -0.633188
 H         1.650791        -1.088596         0.751015
 H        -0.991122         3.015031         0.830546
 H        -1.298527         2.751978         2.575341
