19
Iteration:  4205
 O         1.740703         2.881087         1.715556
 C         0.643389         1.891869         1.863521
 C         0.358057         1.178616         3.135430
 C        -0.334884         0.072570         2.339461
 C        -1.290484         0.777079         1.357152
 C        -0.435247         0.328668         0.099069
 C         0.610973         0.367524         1.147461
 O         1.708092        -0.363493         0.780815
 C        -0.744862         2.325396         1.390224
 H         1.859822         3.561569         2.416304
 H         1.238563         0.692267         3.656662
 H        -0.224793         1.658816         3.898780
 H        -0.446904        -0.989052         2.637703
 H        -2.447361         0.574979         1.422450
 H        -0.650798        -0.715286        -0.295956
 H        -0.399875         1.073920        -0.713021
 H         2.649532         0.041244         0.875077
 H        -0.782510         2.943681         0.494448
 H        -1.079871         2.960044         2.186316
