19
Iteration:  1892
 O         1.804714         2.576728         1.865448
 C         0.636976         1.801880         1.824329
 C         0.346408         1.098510         3.255925
 C        -0.416240         0.017470         2.294559
 C        -1.350661         0.861507         1.266607
 C        -0.594571         0.362489         0.074184
 C         0.697007         0.466791         1.037138
 O         1.932695         0.063077         0.671081
 C        -0.756901         2.309417         1.653491
 H         1.951527         2.928657         0.973417
 H         1.314119         0.767429         3.636891
 H        -0.168003         1.762332         4.028178
 H        -0.789498        -0.897619         2.670690
 H        -2.510435         0.747194         1.180568
 H        -0.883725        -0.660563        -0.245228
 H        -0.576841         0.865484        -0.942204
 H         1.892534        -0.932609         0.371034
 H        -0.874927         3.022532         0.819088
 H        -1.301697         2.541340         2.568068
