19
Iteration:  1791
 O         1.607580         2.787933         1.688643
 C         0.583914         1.795490         1.910599
 C         0.569034         0.946837         3.195280
 C        -0.252715         0.048902         2.192359
 C        -1.321256         0.892494         1.298747
 C        -0.515819         0.687666         0.054394
 C         0.637689         0.473796         1.086167
 O         1.865532        -0.275121         0.894592
 C        -0.884680         2.283804         1.638234
 H         2.205602         2.370119         1.017995
 H         1.514664         0.325743         3.400738
 H         0.096163         1.276723         4.103612
 H        -0.461351        -1.062724         2.046876
 H        -2.418170         0.529516         1.354862
 H        -0.853345        -0.184131        -0.577870
 H        -0.461055         1.649237        -0.601098
 H         1.607210        -1.125853         0.680188
 H        -0.753789         2.939406         0.760752
 H        -1.256048         2.928552         2.495967
