19
Iteration:  4923
 O         1.786758         2.632960         1.495434
 C         0.580490         1.818318         1.853287
 C         0.300321         1.079691         3.223830
 C        -0.426164         0.082608         2.355393
 C        -1.338675         0.868837         1.285716
 C        -0.459773         0.308171         0.136716
 C         0.627021         0.431989         1.180987
 O         1.915868        -0.090893         0.910069
 C        -0.792372         2.317886         1.488187
 H         1.783200         3.580887         1.698582
 H         1.276498         0.515788         3.603069
 H        -0.132738         1.682243         4.120769
 H        -0.729626        -0.963221         2.725215
 H        -2.417246         0.677974         1.224142
 H        -0.678896        -0.785423        -0.034706
 H        -0.418974         0.719258        -0.835113
 H         2.672156         0.438129         0.694720
 H        -0.692455         2.821164         0.476057
 H        -1.208676         3.134684         2.062903
