19
Iteration:  2276charge 0 multiplicity 1
 O         1.669530         2.948328         1.869443
 C         0.669244         1.954254         1.946831
 C         0.447728         1.032679         3.161290
 C        -0.257938         0.142667         2.170166
 C        -1.281359         0.908574         1.243990
 C        -0.485769         0.292677        -0.020132
 C         0.665445         0.425968         0.975869
 O         1.749563        -0.488626         0.901597
 C        -0.824893         2.351628         1.654297
 H         1.352885         3.609973         1.219863
 H         1.432981         0.598020         3.295348
 H        -0.148353         1.447465         3.966300
 H        -0.306889        -1.033193         2.375403
 H        -2.323025         0.787258         1.402259
 H        -0.565224        -0.822353        -0.133181
 H        -0.630325         0.870243        -1.080745
 H         2.096168        -0.602299        -0.002933
 H        -0.986592         3.165421         0.957706
 H        -1.230010         2.713868         2.602092
