19
Iteration:    63charge 0 multiplicity 1
 O         1.750614         2.744829         1.834115
 C         0.671641         1.854021         1.963169
 C         0.311032         0.909498         3.227484
 C        -0.280233        -0.025261         2.165027
 C        -1.291270         0.906293         1.334846
 C        -0.613508         0.313178         0.012391
 C         0.622526         0.432052         0.973554
 O         1.839786        -0.112086         0.637272
 C        -0.714226         2.430526         1.659940
 H         2.106135         2.961108         2.693403
 H         1.137047         0.504527         3.883053
 H        -0.356288         1.450394         3.912833
 H        -0.455440        -1.131857         2.441623
 H        -2.517078         0.834538         1.302470
 H        -0.919431        -0.803942         0.045829
 H        -0.644187         0.797440        -0.960907
 H         2.272624         0.608560         0.227056
 H        -0.714468         3.178115         0.878256
 H        -1.237595         3.022262         2.502921
