19
Iteration:  3943
 O         1.785086         2.565245         1.624596
 C         0.584219         1.882344         1.846815
 C         0.381518         1.051361         3.175883
 C        -0.320353         0.077213         2.251994
 C        -1.343532         0.894895         1.358314
 C        -0.503174         0.298595         0.123531
 C         0.578746         0.433986         1.136371
 O         1.827560        -0.080827         0.828577
 C        -0.748129         2.359089         1.458217
 H         1.985158         3.192735         2.365673
 H         1.363736         0.651348         3.588414
 H        -0.196739         1.536281         3.954398
 H        -0.657803        -0.849777         2.573122
 H        -2.432556         0.720922         1.450295
 H        -0.697313        -0.742311         0.005359
 H        -0.405480         0.644995        -0.859945
 H         2.413623         0.675833         1.224770
 H        -0.914022         2.868945         0.486952
 H        -1.226829         2.965336         2.251288
