19
Iteration:  4000
 O         1.686032         2.618444         1.492654
 C         0.566926         1.874270         1.866275
 C         0.422455         1.002990         3.220956
 C        -0.286854         0.053932         2.245935
 C        -1.263688         0.857304         1.296726
 C        -0.430867         0.416248         0.088236
 C         0.620202         0.515629         1.129724
 O         1.747805        -0.210119         0.986091
 C        -0.779128         2.349129         1.570958
 H         1.656590         3.531896         1.766293
 H         1.415076         0.644234         3.633339
 H        -0.202656         1.493148         3.967496
 H        -0.403088        -1.005501         2.377398
 H        -2.334021         0.786926         0.993546
 H        -0.643371        -0.666446         0.091164
 H        -0.339390         1.096173        -0.686803
 H         2.552848         0.243172         0.530406
 H        -1.006554         2.927921         0.661751
 H        -1.243920         2.962474         2.493276
