19
Iteration:  1218charge 0 multiplicity 1
 O         1.703582         2.736845         1.732182
 C         0.705405         1.783083         1.955526
 C         0.440672         0.882611         3.208445
 C        -0.330359         0.036807         2.202604
 C        -1.310322         0.878046         1.350108
 C        -0.658724         0.492114         0.026268
 C         0.591563         0.449694         1.038693
 O         1.852487        -0.189066         0.727515
 C        -0.693802         2.341233         1.588201
 H         1.440622         3.587143         2.139297
 H         1.356680         0.450539         3.689435
 H        -0.093820         1.232342         4.141616
 H        -0.598120        -0.990113         2.409027
 H        -2.427868         0.853776         1.399611
 H        -0.786061        -0.590454        -0.252150
 H        -0.648648         1.230465        -0.813454
 H         2.384259         0.611626         0.892882
 H        -0.704848         2.976819         0.685419
 H        -1.164354         2.891921         2.422016
