19
Iteration:  4709
 O         1.639660         2.849435         1.598927
 C         0.648053         1.852075         1.848791
 C         0.364889         1.157158         3.219802
 C        -0.393919         0.181008         2.293033
 C        -1.290467         0.850837         1.288197
 C        -0.484196         0.287700         0.172976
 C         0.703417         0.468176         1.116712
 O         1.808346        -0.315251         0.965837
 C        -0.801839         2.289766         1.428877
 H         2.503151         2.423676         1.795239
 H         1.283138         0.554358         3.395320
 H        -0.110238         1.814273         4.015941
 H        -0.233583        -0.971228         2.524788
 H        -2.354037         0.394838         1.272549
 H        -0.467378        -0.723192        -0.048662
 H        -0.354183         0.739633        -0.813825
 H         2.462407         0.002607         0.281745
 H        -0.887941         2.683025         0.398240
 H        -1.386081         2.893013         2.241937
