19
Iteration:   784
 O         1.670661         2.831828         1.926660
 C         0.653896         1.788566         1.927465
 C         0.437013         0.901331         3.236928
 C        -0.337595         0.053987         2.194170
 C        -1.343414         0.936588         1.377624
 C        -0.597582         0.450486         0.101347
 C         0.659470         0.421242         1.030308
 O         1.835487        -0.217668         0.551651
 C        -0.674178         2.379990         1.537765
 H         1.423665         3.371072         1.138649
 H         1.405175         0.495956         3.645645
 H        -0.190759         1.176955         4.088550
 H        -0.630754        -0.980090         2.289504
 H        -2.278789         0.807795         1.549644
 H        -0.817644        -0.606200        -0.095709
 H        -0.610883         1.085733        -0.844098
 H         2.235205        -0.876048         1.218387
 H        -0.679272         2.912748         0.645392
 H        -0.939318         2.995004         2.356132
