19
Iteration:   409charge 0 multiplicity 1
 O         1.543220         2.798630         1.701026
 C         0.631644         1.822667         1.966155
 C         0.464355         0.811094         3.108470
 C        -0.314514        -0.021809         2.098646
 C        -1.367262         0.976766         1.354175
 C        -0.494593         0.630108        -0.005141
 C         0.632611         0.402581         1.004158
 O         1.963986        -0.168715         0.876859
 C        -0.787494         2.354626         1.745348
 H         2.286167         2.338949         1.295816
 H         1.489854         0.334499         3.199517
 H         0.081232         1.159812         4.086544
 H        -0.572370        -1.117038         2.469440
 H        -2.524796         0.840977         1.283657
 H        -0.971675        -0.320572        -0.340330
 H        -0.314343         1.503648        -0.656272
 H         1.772501        -1.082644         0.964614
 H        -0.846792         3.185020         0.992125
 H        -1.108358         2.767757         2.710736
