19
Iteration:   667charge 0 multiplicity 1
 O         1.807567         2.619614         1.931189
 C         0.627340         1.783156         1.919597
 C         0.368256         1.046200         3.210328
 C        -0.369435         0.079136         2.337263
 C        -1.310451         0.910399         1.321980
 C        -0.587009         0.330581         0.118516
 C         0.628817         0.421908         1.021129
 O         1.847423        -0.053455         0.461726
 C        -0.737507         2.331062         1.545887
 H         1.470451         3.517409         1.768887
 H         1.289886         0.599400         3.684345
 H        -0.191605         1.494662         3.996737
 H        -0.531923        -0.918177         2.484884
 H        -2.510822         1.012249         1.395742
 H        -0.697658        -0.705654        -0.154148
 H        -0.635001         0.972174        -0.762655
 H         2.603603        -0.380091         1.040227
 H        -0.953243         3.039788         0.667368
 H        -1.173409         2.867577         2.402911
