19
Iteration:   228charge 0 multiplicity 1
 O         1.744352         2.637188         1.864347
 C         0.623020         1.822570         1.935125
 C         0.355811         0.811060         3.266174
 C        -0.259576         0.023458         2.187549
 C        -1.287563         0.953814         1.347032
 C        -0.563847         0.491036         0.023631
 C         0.679080         0.494372         0.999078
 O         1.847709        -0.146888         0.721345
 C        -0.795254         2.375097         1.583203
 H         1.457466         3.578542         1.853765
 H         1.274511         0.411061         3.695796
 H        -0.392599         1.161891         4.015402
 H        -0.481640        -0.990776         2.235780
 H        -2.370565         0.718752         1.404058
 H        -0.942237        -0.496074        -0.365659
 H        -0.445060         1.262748        -0.785617
 H         2.239320         0.317931        -0.110063
 H        -0.942379         2.969460         0.659840
 H        -1.296522         2.948134         2.444708
