19
Iteration:  3803
 O         1.675199         2.687862         1.649277
 C         0.612014         1.784557         1.859611
 C         0.385550         1.099540         3.232676
 C        -0.352510         0.086704         2.312705
 C        -1.370671         0.881683         1.357204
 C        -0.485421         0.446721         0.166277
 C         0.612419         0.433820         1.137871
 O         1.956730        -0.214220         0.846750
 C        -0.800306         2.346891         1.413786
 H         2.472715         2.227706         2.025103
 H         1.419689         0.746142         3.535604
 H        -0.260681         1.413907         4.023772
 H        -0.711956        -0.838413         2.557740
 H        -2.451978         0.689626         1.204386
 H        -0.710766        -0.532005        -0.360266
 H        -0.498648         1.202585        -0.729947
 H         2.133578         0.094044        -0.052082
 H        -0.948940         2.759188         0.396520
 H        -1.181036         3.090313         2.222052
