19
Iteration:   453charge 0 multiplicity 1
 O         1.634312         2.801139         1.735627
 C         0.627198         1.805406         1.927770
 C         0.467299         0.930124         3.188913
 C        -0.301096        -0.010613         2.232415
 C        -1.358977         0.864997         1.277402
 C        -0.505052         0.584677         0.034075
 C         0.635645         0.460991         1.028107
 O         1.827228        -0.223611         0.761489
 C        -0.770128         2.321689         1.716184
 H         2.405280         2.652512         2.291809
 H         1.443810         0.483278         3.504649
 H        -0.100470         1.295996         4.084168
 H        -0.533284        -1.153349         2.319566
 H        -2.465270         0.755296         1.356447
 H        -0.573228        -0.459543        -0.396042
 H        -0.465996         1.426358        -0.704461
 H         1.887937        -0.180840        -0.179098
 H        -0.743251         2.990394         0.846027
 H        -1.198421         2.855416         2.579339
