19
Iteration:  3216charge 0 multiplicity 1
 O         1.797973         2.632977         1.656695
 C         0.623669         1.819599         1.857220
 C         0.412406         1.050595         3.235066
 C        -0.344661         0.042832         2.351522
 C        -1.368896         0.924228         1.333621
 C        -0.468247         0.500333         0.107047
 C         0.669810         0.420556         1.089686
 O         1.819474        -0.201744         0.822054
 C        -0.859822         2.238657         1.478327
 H         1.568413         3.412713         1.143461
 H         1.398474         0.691499         3.678376
 H        -0.213633         1.672808         3.945809
 H        -0.745658        -0.906991         2.658957
 H        -2.494425         0.774110         1.169016
 H        -0.760383        -0.485944        -0.357963
 H        -0.436813         1.283556        -0.674863
 H         2.611640         0.453616         0.810182
 H        -0.964089         2.916383         0.652457
 H        -1.224599         2.704955         2.401059
