19
Iteration:  4206charge 0 multiplicity 1
 O         1.740746         2.877384         1.715319
 C         0.662144         1.895153         1.863727
 C         0.353146         1.181307         3.141289
 C        -0.322328         0.071312         2.340259
 C        -1.295134         0.784713         1.347297
 C        -0.436693         0.326028         0.086358
 C         0.608903         0.378962         1.154977
 O         1.695810        -0.359472         0.778180
 C        -0.739723         2.314806         1.394192
 H         1.869793         3.570747         2.416046
 H         1.216193         0.678337         3.674331
 H        -0.234086         1.666872         3.953349
 H        -0.446929        -1.039224         2.646393
 H        -2.452491         0.563603         1.442337
 H        -0.653396        -0.777775        -0.269500
 H        -0.392595         1.070178        -0.733800
 H         2.648297         0.081495         0.888337
 H        -0.794877         2.890209         0.501990
 H        -1.128359         2.966861         2.155118
