19
Iteration:  2281charge 0 multiplicity 1
 O         1.675917         2.947341         1.887883
 C         0.675418         1.980017         1.950645
 C         0.444258         1.055008         3.175273
 C        -0.264823         0.151895         2.174803
 C        -1.278774         0.924059         1.270913
 C        -0.461056         0.307620        -0.032577
 C         0.675350         0.403293         0.966374
 O         1.750692        -0.492460         0.862084
 C        -0.832705         2.304590         1.644643
 H         1.329238         3.580436         1.241409
 H         1.510239         0.727001         3.316756
 H        -0.226282         1.436110         3.980749
 H        -0.518842        -0.834483         2.334309
 H        -2.388713         0.713016         1.344219
 H        -0.822902        -0.751774        -0.010396
 H        -0.499279         0.612200        -0.998743
 H         2.124439        -0.636928        -0.010508
 H        -1.022624         3.131398         0.881498
 H        -1.213387         2.619037         2.645672
