19
Iteration:   254
 O         1.667506         2.808226         1.829342
 C         0.695626         1.769168         1.973540
 C         0.493762         0.850110         3.161214
 C        -0.428356        -0.034566         2.190636
 C        -1.387767         0.888369         1.283331
 C        -0.504406         0.632528        -0.003866
 C         0.661905         0.488533         1.034133
 O         1.786653        -0.236872         0.774376
 C        -0.706975         2.272311         1.689840
 H         1.170704         3.382012         1.187634
 H         1.414818         0.299796         3.339074
 H         0.049764         1.283837         4.023952
 H        -0.553734        -1.147510         2.461843
 H        -2.446793         0.784724         1.137603
 H        -0.696827        -0.198550        -0.651336
 H        -0.325571         1.478779        -0.709454
 H         2.620813         0.381873         0.817211
 H        -0.763071         2.840842         0.740902
 H        -1.040216         2.739907         2.568925
