19
Iteration:   889
 O         1.628013         2.766190         1.669116
 C         0.639753         1.752315         1.926712
 C         0.507597         0.890921         3.186588
 C        -0.352279         0.038543         2.167922
 C        -1.369611         0.991662         1.282601
 C        -0.437263         0.579084         0.039111
 C         0.601704         0.438579         1.087174
 O         1.903051        -0.118462         0.790041
 C        -0.845806         2.261399         1.766891
 H         2.454333         2.353234         1.317338
 H         1.378206         0.262376         3.289882
 H         0.122455         1.405371         4.099842
 H        -0.826745        -0.934966         2.283378
 H        -2.545139         0.754479         1.222601
 H        -0.776097        -0.339550        -0.529179
 H        -0.308466         1.401715        -0.792917
 H         1.791509        -1.114610         1.047766
 H        -1.025643         3.083845         0.989036
 H        -1.105634         2.736122         2.756014
