19
Iteration:  3773charge 0 multiplicity 1
 O         1.762612         2.754098         1.752774
 C         0.683893         1.849192         1.888262
 C         0.352099         1.079252         3.226618
 C        -0.326693         0.127706         2.259945
 C        -1.362126         0.841334         1.286566
 C        -0.617144         0.152640         0.067429
 C         0.556772         0.475709         1.016296
 O         1.870118        -0.133602         0.876227
 C        -0.693543         2.396572         1.507101
 H         2.595343         2.256849         1.841444
 H         1.301411         0.758413         3.693795
 H        -0.335919         1.591423         3.930215
 H        -0.685041        -0.864637         2.535777
 H        -2.446653         0.735718         1.262779
 H        -0.739064        -0.954536         0.025169
 H        -0.803262         0.572721        -0.986398
 H         2.253261         0.533955         0.144475
 H        -0.739952         2.889066         0.610555
 H        -1.057722         2.879975         2.370126
