19
Iteration:  2901
 O         1.788524         2.528592         1.707487
 C         0.643973         1.851434         1.951089
 C         0.358273         1.090757         3.221425
 C        -0.414899         0.102592         2.329061
 C        -1.330013         0.898012         1.318551
 C        -0.510066         0.347954         0.112099
 C         0.633493         0.371486         1.155689
 O         1.912422        -0.085765         0.663058
 C        -0.759722         2.337716         1.474232
 H         1.478984         3.465538         1.643226
 H         1.265945         0.512969         3.507245
 H        -0.164406         1.560746         4.079897
 H        -0.890983        -0.795754         2.592050
 H        -2.435975         0.777602         1.414853
 H        -0.888819        -0.734434        -0.156849
 H        -0.605313         1.170112        -0.711833
 H         2.506246         0.696213         0.605265
 H        -1.023024         2.897353         0.519973
 H        -1.314106         2.744745         2.343565
