19
Iteration:  1771charge 0 multiplicity 1
 O         1.648892         2.778583         1.616697
 C         0.685422         1.805224         1.905683
 C         0.434657         0.905136         3.186710
 C        -0.294516        -0.025031         2.184151
 C        -1.332487         0.865731         1.371843
 C        -0.564307         0.630402        -0.025815
 C         0.584760         0.473060         0.992957
 O         1.872092        -0.127751         0.915763
 C        -0.748613         2.284657         1.706064
 H         2.587496         2.487496         1.621585
 H         1.430169         0.433021         3.559541
 H        -0.129168         1.363351         4.034646
 H        -0.601886        -1.022688         2.556204
 H        -2.517603         0.793153         1.507144
 H        -0.830495        -0.358071        -0.648125
 H        -0.485824         1.508617        -0.819576
 H         1.757072        -1.089484         0.778099
 H        -0.949319         2.958170         0.862279
 H        -1.189745         2.643965         2.681888
