19
Iteration:  4863
 O         1.706433         2.811594         1.782470
 C         0.642245         1.883591         1.737190
 C         0.443111         1.140764         3.127797
 C        -0.297659         0.157285         2.245436
 C        -1.367558         0.873537         1.276302
 C        -0.535932         0.228295         0.122883
 C         0.686226         0.483660         1.161072
 O         1.821167        -0.312393         0.910006
 C        -0.865291         2.293710         1.475058
 H         2.174847         2.706286         0.933719
 H         1.351895         0.687090         3.425481
 H         0.041957         1.694641         3.965940
 H        -0.708917        -0.816287         2.519059
 H        -2.442450         0.569774         1.450466
 H        -0.661739        -0.814678         0.108004
 H        -0.454346         0.710640        -0.861974
 H         2.618159         0.277896         1.168894
 H        -0.898748         2.900473         0.580604
 H        -1.342696         2.758825         2.399002
