19
Iteration:   174charge 0 multiplicity 1
 O         1.729587         2.708269         1.876974
 C         0.559802         1.849473         1.966538
 C         0.435033         0.898166         3.193286
 C        -0.290598        -0.041064         2.236740
 C        -1.357486         0.892789         1.302604
 C        -0.584744         0.495340         0.010058
 C         0.620088         0.430096         1.057320
 O         1.849190        -0.103762         0.715307
 C        -0.758239         2.373203         1.538306
 H         2.514946         2.164450         2.154429
 H         1.416762         0.527577         3.457952
 H        -0.034859         1.220216         4.122024
 H        -0.600679        -1.004683         2.396316
 H        -2.457977         0.685853         1.421967
 H        -0.782582        -0.527714        -0.370350
 H        -0.547816         1.217703        -0.833554
 H         2.322320         0.713669         0.304465
 H        -0.574872         2.906022         0.601997
 H        -1.421021         3.040428         2.128362
