19
Iteration:   648
 O         1.834646         2.653867         1.982776
 C         0.643441         1.895073         1.934188
 C         0.340357         1.083628         3.228156
 C        -0.228104         0.006473         2.166312
 C        -1.315602         0.874015         1.322187
 C        -0.531951         0.369707         0.119715
 C         0.683965         0.472888         0.984689
 O         1.716474        -0.184157         0.466933
 C        -0.831755         2.327465         1.590929
 H         1.757998         3.597923         1.811212
 H         1.211061         0.721746         3.795960
 H        -0.349963         1.574426         3.972155
 H        -0.613316        -1.003105         2.513925
 H        -2.450133         0.630690         1.706585
 H        -0.892415        -0.674365         0.039865
 H        -0.555580         0.688978        -0.900742
 H         2.522073        -0.112975         1.125118
 H        -0.731999         3.057287         0.729381
 H        -1.250986         3.038646         2.360824
