19
Iteration:  1711
 O         1.776899         2.700674         1.968024
 C         0.690480         1.780739         1.879838
 C         0.402803         1.051492         3.192614
 C        -0.326631        -0.050946         2.248644
 C        -1.363874         0.834159         1.419676
 C        -0.621304         0.423877         0.143826
 C         0.551648         0.448270         1.037011
 O         1.849788         0.054989         0.629240
 C        -0.708705         2.306104         1.395172
 H         2.609302         2.174076         2.071420
 H         1.277211         0.657707         3.624511
 H        -0.193131         1.589020         3.947700
 H        -0.680496        -1.092868         2.231476
 H        -2.360784         0.892041         1.587093
 H        -0.738040        -0.562420        -0.222667
 H        -0.656517         1.096200        -0.694552
 H         1.743578        -0.635402         0.043165
 H        -0.833254         2.714072         0.356795
 H        -1.100839         2.954705         2.217425
