19
Iteration:  3635
 O         1.868044         2.558812         1.706368
 C         0.572066         1.811098         1.857934
 C         0.410940         1.046610         3.230114
 C        -0.309979         0.006343         2.287548
 C        -1.348258         0.916748         1.316735
 C        -0.573355         0.324289         0.162460
 C         0.590374         0.447101         1.084710
 O         1.892066        -0.070012         0.757554
 C        -0.833593         2.393818         1.467117
 H         1.722236         3.502811         1.972678
 H         1.327277         0.710916         3.619653
 H        -0.378971         1.410642         3.928747
 H        -0.877730        -0.878256         2.736106
 H        -2.390545         0.737084         1.291494
 H        -0.952553        -0.695559        -0.024030
 H        -0.532797         0.789231        -0.894311
 H         2.408106         0.694734         0.890038
 H        -0.717226         2.891672         0.420513
 H        -1.273715         3.044884         2.267544
