19
Iteration:  1241
 O         1.826735         2.720075         1.916767
 C         0.657133         1.831566         1.865808
 C         0.345646         0.918430         3.135300
 C        -0.314623         0.042831         2.191323
 C        -1.355799         0.927420         1.380938
 C        -0.672161         0.306797         0.127969
 C         0.620626         0.497603         0.973323
 O         1.895512        -0.138685         0.653564
 C        -0.714226         2.346987         1.572105
 H         1.720218         3.437389         2.559948
 H         1.220748         0.705231         3.859598
 H        -0.285669         1.480880         3.880379
 H        -0.597345        -1.079106         2.251843
 H        -2.478037         0.865983         1.726888
 H        -0.956198        -0.806122         0.216950
 H        -0.647057         0.753173        -0.893278
 H         2.212585         0.404984        -0.081184
 H        -0.686063         2.859446         0.606068
 H        -1.264000         3.002832         2.296989
