19
Iteration:  4180
 O         1.628396         2.765049         1.680375
 C         0.653266         1.805089         1.831534
 C         0.453718         1.176835         3.178881
 C        -0.292273         0.133428         2.303505
 C        -1.340138         0.996372         1.299794
 C        -0.537207         0.397679         0.073667
 C         0.611902         0.359086         1.089018
 O         1.935882        -0.404114         0.865770
 C        -0.861042         2.281940         1.458492
 H         1.804642         3.382486         2.438973
 H         1.290635         0.582306         3.572612
 H        -0.085298         1.630404         3.968131
 H        -0.561774        -0.823879         2.605528
 H        -2.386212         0.808440         1.409520
 H        -0.914111        -0.559707        -0.077989
 H        -0.549433         0.834876        -0.940242
 H         2.822725         0.070467         1.148852
 H        -0.936805         2.929377         0.495231
 H        -1.187039         2.947118         2.329009
