19
Iteration:  1379charge 0 multiplicity 1
 O         1.786608         2.611954         1.875874
 C         0.662182         1.877102         1.893082
 C         0.263742         1.042759         3.224065
 C        -0.277632         0.053311         2.221618
 C        -1.284784         0.899100         1.359215
 C        -0.567275         0.409543         0.075802
 C         0.643386         0.430034         1.002645
 O         1.875049        -0.116609         0.599425
 C        -0.727521         2.318404         1.590201
 H         1.553174         3.518053         1.621852
 H         1.028344         0.761758         3.925498
 H        -0.463670         1.535376         3.888433
 H        -0.571724        -0.883673         2.576223
 H        -2.367409         0.940282         1.633603
 H        -0.926686        -0.631615        -0.229116
 H        -0.707985         1.146003        -0.833851
 H         2.091879        -1.097861         0.851693
 H        -0.948515         2.947712         0.670637
 H        -1.220283         2.864356         2.399413
