19
Iteration:  2188charge 0 multiplicity 1
 O         1.923190         2.499317         1.866680
 C         0.584785         1.825398         1.916485
 C         0.307102         1.121470         3.247826
 C        -0.417870         0.081497         2.280486
 C        -1.377258         0.820872         1.286297
 C        -0.551662         0.276108         0.144765
 C         0.626342         0.447120         1.063575
 O         1.896281         0.083566         0.609205
 C        -0.793768         2.355703         1.504599
 H         2.035735         2.483616         0.888906
 H         1.219500         0.814829         3.710087
 H        -0.418620         1.612237         3.875406
 H        -0.586030        -1.033258         2.535704
 H        -2.396443         0.455674         1.360617
 H        -0.709979        -0.736809        -0.103553
 H        -0.705347         0.853059        -0.780876
 H         2.504461         0.717521         1.209052
 H        -0.777184         2.841452         0.528470
 H        -1.218953         2.919013         2.348892
