19
Iteration:   429charge 0 multiplicity 1
 O         1.566016         2.893036         1.630710
 C         0.718744         1.766045         1.919340
 C         0.506458         0.801322         3.216879
 C        -0.397995         0.073192         2.163842
 C        -1.287045         0.925615         1.219852
 C        -0.468843         0.593823        -0.008310
 C         0.633951         0.469059         1.028694
 O         1.840782        -0.187660         0.881001
 C        -0.794140         2.241869         1.826584
 H         2.516731         2.682289         1.772971
 H         1.323616         0.066298         3.538093
 H         0.145148         1.344290         4.097462
 H        -0.728908        -0.948712         2.140169
 H        -2.472627         0.920584         1.332076
 H        -0.691599        -0.518659        -0.261847
 H        -0.289008         1.352333        -0.903226
 H         1.590154        -0.790949         0.195520
 H        -0.996868         3.183918         1.194677
 H        -1.255729         2.373637         2.817482
