19
Iteration:  2428
 O         1.679628         2.842695         1.829452
 C         0.686982         1.819272         1.799932
 C         0.399167         1.080393         3.137589
 C        -0.305127         0.115293         2.215966
 C        -1.333713         0.952385         1.277674
 C        -0.582848         0.344389         0.062379
 C         0.659350         0.414187         1.074189
 O         1.867334        -0.370059         0.866380
 C        -0.761668         2.314827         1.599770
 H         1.581171         3.515664         1.131721
 H         1.233211         0.567093         3.630847
 H        -0.192160         1.527831         3.949629
 H        -0.366141        -1.078352         2.371043
 H        -2.382196         0.796270         1.377716
 H        -0.784336        -0.691832        -0.025589
 H        -0.841681         0.739634        -0.855937
 H         2.567937         0.113844         0.518684
 H        -0.893020         3.044283         0.804194
 H        -1.231389         2.801372         2.474318
