19
Iteration:  4430charge 0 multiplicity 1
 O         1.742211         2.510860         1.421053
 C         0.582563         1.889227         1.812068
 C         0.409116         1.060523         3.267695
 C        -0.327776         0.069616         2.275999
 C        -1.359803         0.882512         1.315795
 C        -0.507392         0.356382         0.088859
 C         0.623548         0.505437         1.138499
 O         1.912966        -0.096930         1.060943
 C        -0.844490         2.339504         1.468399
 H         2.008607         3.327217         1.860502
 H         1.304919         0.509584         3.509674
 H        -0.241094         1.417784         4.091462
 H        -0.544286        -0.947595         2.494752
 H        -2.483653         0.722829         1.450856
 H        -0.750238        -0.690855        -0.236534
 H        -0.490333         0.852162        -0.897596
 H         2.519773         0.670853         1.233369
 H        -0.861760         2.897625         0.505433
 H        -1.267413         2.763862         2.377972
