19
Iteration:  4199charge 0 multiplicity 1
 O         1.730914         2.878031         1.707470
 C         0.589080         1.886828         1.840623
 C         0.386441         1.146928         3.129795
 C        -0.366794         0.098982         2.326880
 C        -1.300519         0.772499         1.375673
 C        -0.451931         0.354008         0.154562
 C         0.649198         0.331775         1.110993
 O         1.769330        -0.396025         0.791669
 C        -0.766077         2.362815         1.390187
 H         1.723132         3.476015         2.498035
 H         1.323723         0.811349         3.540065
 H        -0.281362         1.751768         3.848769
 H        -0.538273        -0.960546         2.695078
 H        -2.342694         0.663695         1.337872
 H        -0.669109        -0.586449        -0.402767
 H        -0.403671         1.103374        -0.651959
 H         2.686085         0.003877         0.894644
 H        -0.751352         3.005730         0.500773
 H        -1.042494         2.953935         2.317234
