19
Iteration:  4624charge 0 multiplicity 1
 O         1.676244         2.830960         1.591088
 C         0.640169         1.863559         1.800512
 C         0.433692         1.113595         3.207766
 C        -0.341906         0.125376         2.325462
 C        -1.274769         0.820839         1.290068
 C        -0.477116         0.316690         0.060205
 C         0.585551         0.392066         1.119356
 O         1.792193        -0.232781         1.010767
 C        -0.785353         2.273968         1.416651
 H         2.473813         2.430683         1.963404
 H         1.309259         0.893888         3.793472
 H        -0.168412         1.550203         4.067263
 H        -0.629000        -0.873829         2.690427
 H        -2.428631         0.718143         1.527509
 H        -0.610371        -0.852602        -0.068367
 H        -0.477252         0.946751        -0.865307
 H         2.418535         0.318879         0.496514
 H        -0.906652         2.844225         0.508576
 H        -1.259438         2.971222         2.129012
