19
Iteration:  3458charge 0 multiplicity 1
 O         1.774958         2.653791         1.815445
 C         0.697501         1.798164         1.854984
 C         0.370478         1.047321         3.131807
 C        -0.323981         0.074821         2.258166
 C        -1.407256         0.931613         1.380077
 C        -0.694097         0.223566         0.161553
 C         0.639992         0.435413         1.127663
 O         1.884186        -0.089643         0.719574
 C        -0.658221         2.371667         1.416915
 H         1.525406         3.486145         1.350339
 H         1.139075         0.496926         3.614183
 H        -0.140459         1.592857         3.877846
 H        -0.611789        -0.960458         2.435259
 H        -2.516759         0.876128         1.589504
 H        -0.858759        -0.849674        -0.138512
 H        -0.700635         0.787037        -0.832277
 H         2.619079         0.292658         1.348559
 H        -0.800816         3.011531         0.519282
 H        -1.102534         3.034976         2.214824
