19
Iteration:  1309charge 0 multiplicity 1
 O         1.592430         2.809296         1.586013
 C         0.668533         1.790647         1.933075
 C         0.407103         0.864754         3.167796
 C        -0.372474         0.027458         2.154803
 C        -1.310868         1.009807         1.331529
 C        -0.597360         0.522156         0.016150
 C         0.649882         0.452462         1.065266
 O         1.951617        -0.163437         0.910998
 C        -0.699405         2.284771         1.735371
 H         2.455638         2.508049         1.949481
 H         1.265435         0.348595         3.676755
 H        -0.256563         1.154496         3.990555
 H        -0.647930        -1.110682         2.226739
 H        -2.394498         0.972035         1.208994
 H        -0.875774        -0.512156        -0.157461
 H        -0.555398         1.227527        -0.801317
 H         1.952715        -0.661506         0.003303
 H        -0.800957         3.045613         0.965994
 H        -1.205622         2.671051         2.651485
