19
Iteration:  3487
 O         1.750715         2.737448         1.756105
 C         0.687001         1.857522         1.918214
 C         0.436832         1.089368         3.191868
 C        -0.310252         0.084186         2.305238
 C        -1.351263         0.878234         1.338200
 C        -0.555535         0.389600         0.034433
 C         0.637597         0.372531         1.077605
 O         1.830630        -0.299051         0.769330
 C        -0.832224         2.348791         1.535647
 H         1.571976         3.312731         0.988827
 H         1.209145         0.538545         3.827996
 H        -0.093308         1.727819         3.936877
 H        -0.595667        -0.945936         2.536639
 H        -2.500912         0.738648         1.338017
 H        -0.795511        -0.599305        -0.357584
 H        -0.386518         1.067696        -0.775754
 H         2.578990         0.391567         0.741060
 H        -0.941701         3.020875         0.639412
 H        -1.305259         2.871117         2.421038
