19
Iteration:  4535
 O         1.647936         2.742425         1.681783
 C         0.610007         1.840535         1.773178
 C         0.429407         1.172140         3.138318
 C        -0.323714         0.185166         2.311134
 C        -1.351608         0.894755         1.340037
 C        -0.588582         0.277021         0.143281
 C         0.670136         0.324005         1.095429
 O         1.931670        -0.315998         0.898428
 C        -0.771088         2.362432         1.369188
 H         1.937414         3.177809         2.493007
 H         1.294124         0.707931         3.563414
 H        -0.116043         1.635986         3.948273
 H        -0.413445        -0.866225         2.609315
 H        -2.350403         0.749780         1.534267
 H        -0.829091        -0.741883        -0.023759
 H        -0.513479         0.955821        -0.728282
 H         2.422340         0.457229         1.138300
 H        -0.974426         2.872496         0.484522
 H        -1.240096         2.937977         2.156315
