19
Iteration:  1003charge 0 multiplicity 1
 O         1.816098         2.585465         1.784272
 C         0.655997         1.796719         1.904495
 C         0.415040         0.894892         3.134317
 C        -0.315064        -0.002274         2.101846
 C        -1.344748         0.917012         1.397748
 C        -0.629390         0.554852         0.034207
 C         0.589609         0.484796         0.996618
 O         1.878046        -0.083367         0.835801
 C        -0.840802         2.318970         1.686141
 H         1.900123         2.824501         0.840540
 H         1.300614         0.491614         3.740507
 H        -0.234447         1.401033         3.848322
 H        -0.466952        -1.154457         2.245980
 H        -2.407549         0.746543         1.573857
 H        -0.765735        -0.461566        -0.328045
 H        -0.691078         1.339787        -0.699971
 H         2.384061         0.751306         0.821152
 H        -0.889520         2.996239         0.848165
 H        -1.015816         2.836155         2.641563
