19
Iteration:  1182charge 0 multiplicity 1
 O         1.779369         2.607833         1.558790
 C         0.594641         1.890446         1.869281
 C         0.514944         0.891771         3.182858
 C        -0.365734         0.025132         2.258086
 C        -1.332078         0.853605         1.227496
 C        -0.451327         0.691705         0.054910
 C         0.578836         0.431934         1.077360
 O         1.852288        -0.222868         0.820497
 C        -0.924161         2.317048         1.826429
 H         1.563681         3.523803         1.292744
 H         1.437780         0.460688         3.346136
 H         0.000958         1.384784         4.005441
 H        -0.564888        -0.952472         2.395406
 H        -2.307607         0.527741         1.295510
 H        -0.624410        -0.144579        -0.587658
 H        -0.234187         1.531044        -0.630032
 H         2.520737         0.120457         1.431188
 H        -1.255821         3.152019         1.181516
 H        -1.437338         2.398340         2.751558
