19
Iteration:  2997charge 0 multiplicity 1
 O         1.677448         2.742452         1.713678
 C         0.700873         1.795129         1.928816
 C         0.409534         1.075359         3.229587
 C        -0.359027         0.022004         2.295109
 C        -1.358666         0.878071         1.367149
 C        -0.549432         0.528093         0.018315
 C         0.609835         0.451119         1.054901
 O         1.852555        -0.298371         0.757544
 C        -0.727348         2.292150         1.520441
 H         1.421343         3.267098         0.940284
 H         1.310052         0.694099         3.816216
 H        -0.112909         1.627842         4.032332
 H        -0.485580        -0.986359         2.668252
 H        -2.392122         0.826797         1.383555
 H        -0.769086        -0.519479        -0.334112
 H        -0.384536         1.157028        -0.851599
 H         2.617002        -0.099781         1.429066
 H        -0.811006         2.850261         0.564792
 H        -0.999148         2.957537         2.352033
