19
Iteration:  3615
 O         1.786860         2.491866         1.720736
 C         0.625897         1.842477         1.909608
 C         0.262671         1.173817         3.274592
 C        -0.335062         0.086461         2.271668
 C        -1.349976         0.928248         1.324036
 C        -0.554402         0.262548         0.129123
 C         0.652805         0.386022         1.096051
 O         1.902193        -0.041848         0.624172
 C        -0.696200         2.351807         1.527762
 H         1.857662         3.460964         1.753402
 H         1.056260         0.656121         3.795898
 H        -0.550547         1.650378         3.833505
 H        -0.473264        -0.997658         2.547106
 H        -2.370659         0.878475         1.650294
 H        -0.870156        -0.796413        -0.056792
 H        -0.700158         0.656057        -0.980870
 H         2.552962         0.506269         1.013497
 H        -0.985044         2.965921         0.643998
 H        -1.217344         2.826323         2.393491
