19
Iteration:  2802
 O         1.684702         2.871010         1.732382
 C         0.711690         1.867848         1.931014
 C         0.383864         1.063330         3.281207
 C        -0.321001         0.163847         2.242806
 C        -1.336579         0.868438         1.267882
 C        -0.479615         0.342547         0.035268
 C         0.745420         0.436892         1.072091
 O         1.817896        -0.339172         0.832209
 C        -0.894237         2.327843         1.571551
 H         2.463007         2.570112         1.249929
 H         1.229200         0.498901         3.721334
 H        -0.371620         1.570629         3.846809
 H        -0.452513        -0.872139         2.479109
 H        -2.380336         0.731212         1.250467
 H        -0.509141        -0.811072        -0.044930
 H        -0.524914         0.928894        -0.923728
 H         1.745043        -0.493166        -0.100194
 H        -1.018918         3.088872         0.742596
 H        -1.349030         2.826372         2.446274
