19
Iteration:  2583charge 0 multiplicity 1
 O         1.697409         2.715947         1.585082
 C         0.605656         1.807851         1.861624
 C         0.361747         1.051925         3.213189
 C        -0.350885         0.097479         2.226443
 C        -1.349148         0.869251         1.284040
 C        -0.508922         0.367437         0.167357
 C         0.677270         0.438467         1.084605
 O         1.910837        -0.198603         0.820071
 C        -0.791025         2.347978         1.595263
 H         2.180366         2.867529         2.431439
 H         1.318005         0.669589         3.705705
 H        -0.298091         1.555802         3.918013
 H        -0.738583        -0.942547         2.473406
 H        -2.465779         0.795682         1.217269
 H        -0.661075        -0.719723         0.170841
 H        -0.723464         0.844637        -0.752970
 H         2.595737         0.430477         0.498503
 H        -0.860436         2.991258         0.678004
 H        -1.228526         2.852678         2.492437
