19
Iteration:  1634
 O         1.712658         2.718300         1.731298
 C         0.634256         1.768374         1.885598
 C         0.566363         0.872735         3.149832
 C        -0.315547        -0.004707         2.119150
 C        -1.416208         0.914814         1.328699
 C        -0.582465         0.648983        -0.054622
 C         0.595025         0.433611         1.012596
 O         1.908706        -0.146378         1.041770
 C        -0.782773         2.293568         1.659129
 H         1.478830         3.289132         0.975397
 H         1.543391         0.492725         3.315227
 H         0.196925         1.345882         4.096689
 H        -0.634580        -1.049598         2.317487
 H        -2.456884         0.897809         1.674425
 H        -0.992154        -0.192126        -0.616279
 H        -0.652887         1.554523        -0.698015
 H         1.806187        -1.056257         0.598033
 H        -0.836060         2.991202         0.738602
 H        -1.185830         2.837429         2.548830
