19
Iteration:  2573
 O         1.747979         2.684816         1.532368
 C         0.652840         1.824710         1.823440
 C         0.313082         0.988394         3.231785
 C        -0.360689         0.052617         2.235734
 C        -1.305639         0.930858         1.343180
 C        -0.592029         0.327402         0.119701
 C         0.683744         0.418171         1.038474
 O         1.930642        -0.109850         0.897245
 C        -0.801018         2.339237         1.567098
 H         2.089039         3.247009         2.247487
 H         1.057944         0.292304         3.678484
 H        -0.205271         1.527079         4.008605
 H        -0.682537        -0.932347         2.519550
 H        -2.419068         0.800106         1.499844
 H        -0.925080        -0.704221        -0.057587
 H        -0.558450         0.873498        -0.763942
 H         2.418595         0.721839         0.917916
 H        -0.904715         3.098869         0.765078
 H        -1.221172         2.686273         2.500117
