19
Iteration:  1427charge 0 multiplicity 1
 O         1.776186         2.662545         1.945399
 C         0.676158         1.798535         1.932495
 C         0.500771         1.014375         3.149451
 C        -0.409598         0.061823         2.321041
 C        -1.316152         0.878563         1.317061
 C        -0.597368         0.379869         0.024448
 C         0.553934         0.416935         1.055624
 O         1.882218        -0.047024         0.719671
 C        -0.740911         2.350412         1.409895
 H         1.375890         3.553050         1.992895
 H         1.514113         0.539044         3.381469
 H         0.236655         1.441184         4.135826
 H        -0.873729        -0.954250         2.543027
 H        -2.403640         0.729666         1.530533
 H        -0.903621        -0.725895        -0.165774
 H        -0.720618         1.023572        -0.958593
 H         1.623416        -0.828000         0.257791
 H        -0.520943         2.922852         0.535689
 H        -1.269398         3.037571         2.105429
