19
Iteration:  4037charge 0 multiplicity 1
 O         1.697146         2.824022         1.701708
 C         0.679216         1.886095         1.776463
 C         0.441900         1.122942         3.108746
 C        -0.365998         0.066873         2.335495
 C        -1.316688         0.882587         1.340638
 C        -0.590989         0.408216         0.112584
 C         0.633963         0.322987         1.045421
 O         1.910200        -0.361343         0.938563
 C        -0.795377         2.294237         1.482435
 H         1.508117         3.579062         2.269322
 H         1.285886         0.649503         3.537930
 H        -0.085653         1.633830         3.959236
 H        -0.736816        -0.982158         2.666243
 H        -2.372129         0.711756         1.246220
 H        -0.940858        -0.434532        -0.464473
 H        -0.453375         0.948608        -0.834417
 H         2.470897         0.296127         0.497928
 H        -0.989478         2.893348         0.562490
 H        -1.046688         2.875263         2.409540
