19
Iteration:  1342charge 0 multiplicity 1
 O         1.689706         2.714637         1.766370
 C         0.630570         1.835728         1.877781
 C         0.585258         0.887712         3.068888
 C        -0.391990         0.076542         2.210937
 C        -1.346961         0.908337         1.320456
 C        -0.472120         0.556542         0.008917
 C         0.583415         0.459651         1.068925
 O         1.848473        -0.101627         0.950184
 C        -0.822880         2.271479         1.646456
 H         1.950592         2.863384         0.827579
 H         1.516676         0.308038         3.056050
 H         0.222901         1.101355         4.077562
 H        -0.608764        -1.043136         2.359597
 H        -2.408161         0.835590         1.266721
 H        -0.747813        -0.292716        -0.561307
 H        -0.465429         1.304314        -0.714832
 H         1.581538        -1.057364         0.963129
 H        -0.982926         2.929674         0.789273
 H        -1.265343         2.691773         2.568516
