19
Iteration:   558
 O         1.797957         2.555487         1.631140
 C         0.642181         1.839879         1.905877
 C         0.441516         0.956866         3.175192
 C        -0.294513        -0.029351         2.152652
 C        -1.367513         0.841140         1.326797
 C        -0.576503         0.677748        -0.001577
 C         0.611320         0.501557         1.054412
 O         1.813540        -0.115847         0.869503
 C        -0.800726         2.230081         1.749084
 H         1.771033         3.510164         1.494515
 H         1.191302         0.282825         3.620250
 H        -0.201390         1.350612         3.926835
 H        -0.384869        -1.024342         2.332187
 H        -2.511421         0.611759         1.587425
 H        -0.784462        -0.197853        -0.544423
 H        -0.588185         1.439003        -0.733207
 H         2.634732         0.507510         0.814572
 H        -1.015985         3.025998         0.959689
 H        -1.176110         2.625890         2.694182
