19
Iteration:  4751charge 0 multiplicity 1
 O         1.682751         2.626513         1.510535
 C         0.620691         1.812692         1.771370
 C         0.399822         1.184911         3.173101
 C        -0.359502         0.136121         2.290622
 C        -1.364037         0.784321         1.345106
 C        -0.553938         0.338370         0.094285
 C         0.557023         0.320375         1.092590
 O         1.982482        -0.041568         1.110300
 C        -0.743460         2.281918         1.440695
 H         2.297342         2.622259         2.272570
 H         1.303318         0.597685         3.478628
 H        -0.153693         1.733237         3.867660
 H        -0.632897        -0.991229         2.586349
 H        -2.463870         0.763903         1.303813
 H        -1.079937        -0.564606        -0.159818
 H        -0.572065         1.147691        -0.703973
 H         2.286226         0.728650         0.687470
 H        -0.597848         2.783195         0.475268
 H        -1.123290         2.901484         2.279258
