19
Iteration:  2776
 O         1.661338         2.820677         1.868115
 C         0.625185         1.876735         1.827775
 C         0.390876         1.108154         3.154748
 C        -0.301036         0.063486         2.290267
 C        -1.289198         0.851262         1.387273
 C        -0.532337         0.444446         0.074931
 C         0.674011         0.353184         1.055667
 O         1.869390        -0.247779         0.836987
 C        -0.765645         2.277920         1.454995
 H         2.311155         2.648310         1.173013
 H         1.370739         0.873101         3.598381
 H        -0.400615         1.574040         3.782510
 H        -0.549182        -1.050683         2.658793
 H        -2.412902         0.831836         1.338801
 H        -0.920595        -0.573387        -0.256133
 H        -0.523680         1.231776        -0.776564
 H         1.686071        -0.831259         0.140324
 H        -0.941850         2.745839         0.496703
 H        -1.143310         3.075970         2.142320
