19
Iteration:  2416charge 0 multiplicity 1
 O         1.703316         2.767048         1.712005
 C         0.658752         1.876764         1.880855
 C         0.336656         0.981707         3.223844
 C        -0.264392         0.030025         2.184401
 C        -1.345729         0.891686         1.338353
 C        -0.548236         0.432566         0.134133
 C         0.689049         0.482178         1.025690
 O         1.822856        -0.284412         0.899562
 C        -0.734312         2.306633         1.519230
 H         1.553410         3.232630         0.853549
 H         1.250530         0.626535         3.688953
 H        -0.342225         1.550222         3.907712
 H        -0.757564        -1.009086         2.449928
 H        -2.416923         0.820573         1.375940
 H        -0.736990        -0.596027        -0.002656
 H        -0.458066         0.929940        -0.755050
 H         2.487852         0.341992         0.470267
 H        -0.809620         2.922442         0.617531
 H        -1.102261         2.824802         2.451591
