19
Iteration:  3858
 O         1.647483         2.886265         1.607533
 C         0.607933         1.872219         1.922686
 C         0.470230         0.939531         3.190067
 C        -0.336617         0.136250         2.207113
 C        -1.348104         0.895626         1.302607
 C        -0.504718         0.326109         0.024320
 C         0.624770         0.574162         1.044954
 O         1.819423        -0.350022         1.028406
 C        -0.776028         2.328763         1.563048
 H         2.428915         2.325671         1.730941
 H         1.373827         0.262283         3.290455
 H         0.291833         1.464728         4.089343
 H        -0.480669        -0.855248         2.337794
 H        -2.436778         0.748720         1.291464
 H        -0.671670        -0.757369         0.049386
 H        -0.455884         0.953584        -0.901996
 H         2.415910        -0.110943         0.392636
 H        -0.790004         2.982085         0.663841
 H        -1.419270         2.932371         2.343233
