19
Iteration:  1994
 O         1.707720         2.700108         1.892811
 C         0.647649         1.816625         1.944920
 C         0.388513         1.009566         3.281809
 C        -0.326651         0.052615         2.248985
 C        -1.314838         0.939178         1.370461
 C        -0.522948         0.360801         0.060826
 C         0.608788         0.445798         1.002620
 O         1.862993        -0.106306         0.604623
 C        -0.740819         2.332986         1.512110
 H         1.615733         3.225675         1.069661
 H         1.302017         0.596890         3.798240
 H        -0.230349         1.462562         4.094373
 H        -0.671900        -1.024029         2.335904
 H        -2.309316         0.711031         1.267543
 H        -0.666212        -0.786970        -0.139077
 H        -0.592872         1.062891        -0.804777
 H         2.104590        -0.845728         1.106726
 H        -0.850193         2.933737         0.600271
 H        -1.119603         3.067588         2.167564
