19
Iteration:  1843charge 0 multiplicity 1
 O         1.732363         2.716814         1.956056
 C         0.646036         1.786335         1.930577
 C         0.425010         0.990234         3.162167
 C        -0.293647         0.028874         2.258758
 C        -1.383383         0.948833         1.345192
 C        -0.682358         0.359398         0.059946
 C         0.643172         0.437723         1.032616
 O         1.936744        -0.012048         0.703234
 C        -0.739566         2.331413         1.481534
 H         1.974114         2.652211         1.003983
 H         1.292752         0.529276         3.634157
 H        -0.241333         1.455959         3.857236
 H        -0.546855        -1.036258         2.544895
 H        -2.421065         0.982553         1.513394
 H        -0.816882        -0.677813        -0.050604
 H        -0.935443         0.751904        -0.883026
 H         1.938439        -0.846804         0.278169
 H        -0.695701         2.805477         0.491760
 H        -1.045284         2.916612         2.335867
