19
Iteration:  3306
 O         1.756139         2.690042         1.853222
 C         0.650656         1.858701         1.861967
 C         0.330360         1.131798         3.214178
 C        -0.270770         0.066014         2.229154
 C        -1.317079         0.847481         1.298905
 C        -0.596123         0.364034         0.167501
 C         0.671355         0.473391         1.083851
 O         1.816827        -0.281070         0.771272
 C        -0.747731         2.345937         1.483536
 H         1.875649         3.073672         0.965332
 H         1.282482         0.819852         3.684693
 H        -0.380934         1.700311         3.968893
 H        -0.516228        -0.973710         2.485245
 H        -2.414607         0.644212         1.302480
 H        -0.885820        -0.655161        -0.164387
 H        -0.664000         1.141656        -0.622352
 H         2.373385         0.263100         0.097307
 H        -0.796349         2.771903         0.474094
 H        -1.100751         3.005144         2.272977
