19
Iteration:    47
 O         1.751059         2.581895         1.816061
 C         0.566901         1.828352         1.973002
 C         0.321024         0.998159         3.197477
 C        -0.307499         0.055853         2.191316
 C        -1.389928         0.912940         1.328105
 C        -0.555551         0.352731         0.145475
 C         0.659913         0.497315         1.019461
 O         1.912570        -0.064404         0.533398
 C        -0.759987         2.390044         1.625004
 H         2.267832         2.510422         2.627666
 H         1.263973         0.565451         3.513084
 H        -0.328971         1.319790         4.042607
 H        -0.585076        -0.969396         2.269648
 H        -2.333999         0.739958         1.517482
 H        -0.713524        -0.687139        -0.000764
 H        -0.625090         0.815530        -0.877242
 H         2.593407         0.520085         0.917186
 H        -0.767103         3.013022         0.678221
 H        -1.223799         2.859869         2.464928
