19
Iteration:   800charge 0 multiplicity 1
 O         1.771997         2.788052         2.004134
 C         0.729230         1.884599         1.926056
 C         0.348589         0.979193         3.112294
 C        -0.313896         0.009947         2.234366
 C        -1.300876         0.944398         1.349087
 C        -0.624321         0.377593         0.130107
 C         0.639500         0.409966         0.999689
 O         1.795493        -0.233513         0.512575
 C        -0.716832         2.298698         1.595546
 H         1.565539         3.541529         1.415422
 H         1.185765         0.427535         3.588530
 H        -0.063451         1.619262         3.938161
 H        -0.685553        -1.003801         2.519509
 H        -2.539123         0.868870         1.370881
 H        -0.858215        -0.707934        -0.026862
 H        -0.707720         0.938555        -0.884098
 H         2.512436         0.112976         1.181245
 H        -0.732482         2.948090         0.622447
 H        -1.302755         2.915427         2.353987
