19
Iteration:  1365
 O         1.836529         2.625466         1.850092
 C         0.619812         1.795316         1.891186
 C         0.415173         1.069175         3.209477
 C        -0.278979         0.067385         2.231991
 C        -1.373588         0.859068         1.327987
 C        -0.572368         0.537398         0.038331
 C         0.619173         0.434247         1.029037
 O         1.879587        -0.133195         0.716487
 C        -0.863379         2.307640         1.596562
 H         1.717479         3.422472         1.303559
 H         1.328781         0.658145         3.550494
 H        -0.230675         1.521398         3.979173
 H        -0.510897        -1.013210         2.386889
 H        -2.317755         0.488812         1.256262
 H        -0.831720        -0.348800        -0.461539
 H        -0.433513         1.205043        -0.730572
 H         1.777018        -0.994491         1.077457
 H        -0.891739         2.961759         0.699009
 H        -1.261522         2.771690         2.495888
