19
Iteration:  1778
 O         1.613242         2.779703         1.637728
 C         0.673191         1.842524         1.904581
 C         0.495312         0.882065         3.236594
 C        -0.307231        -0.018345         2.180774
 C        -1.312824         0.856118         1.383931
 C        -0.576604         0.664121        -0.079904
 C         0.634482         0.460949         1.024473
 O         1.854010        -0.171032         0.927700
 C        -0.763465         2.300500         1.658032
 H         2.424667         2.284445         1.393802
 H         1.490848         0.613859         3.603817
 H        -0.032722         1.388804         4.017075
 H        -0.525259        -1.096542         2.460987
 H        -2.367654         0.752048         1.497690
 H        -0.758885        -0.150606        -0.710917
 H        -0.603301         1.579420        -0.670470
 H         1.663146        -1.171775         0.751671
 H        -1.026609         2.972340         0.829525
 H        -1.269409         2.633844         2.593423
