19
Iteration:   641charge 0 multiplicity 1
 O         1.861811         2.704333         1.985405
 C         0.590348         1.891915         1.962092
 C         0.331198         1.060376         3.170897
 C        -0.250051         0.018339         2.212142
 C        -1.306499         0.843243         1.360017
 C        -0.582161         0.394294         0.099471
 C         0.673738         0.471420         0.972321
 O         1.737618        -0.234583         0.525778
 C        -0.793927         2.354175         1.568577
 H         1.693244         3.620665         1.681863
 H         1.230631         0.653698         3.613807
 H        -0.319623         1.451335         4.003922
 H        -0.474509        -1.120033         2.320584
 H        -2.255312         0.728349         1.573687
 H        -0.675684        -0.727607        -0.112428
 H        -0.733628         1.105418        -0.824407
 H         2.636554        -0.080429         0.866013
 H        -0.842916         2.902928         0.655725
 H        -1.214610         2.930513         2.407554
