19
Iteration:  4718charge 0 multiplicity 1
 O         1.645265         2.793282         1.551542
 C         0.612686         1.894129         1.839023
 C         0.349729         1.144339         3.158772
 C        -0.356476         0.144671         2.280929
 C        -1.370913         0.830219         1.320001
 C        -0.427759         0.294913         0.180862
 C         0.638356         0.459221         1.129488
 O         1.885295        -0.289366         0.988019
 C        -0.780859         2.302563         1.456939
 H         2.463283         2.342494         1.849154
 H         1.280208         0.703271         3.582660
 H        -0.063490         1.564479         4.014115
 H        -0.534167        -1.002740         2.428964
 H        -2.455465         0.718148         1.262869
 H        -0.556520        -0.787712         0.076235
 H        -0.452365         0.787629        -0.834457
 H         2.476901         0.264423         0.397642
 H        -0.789232         2.912680         0.529934
 H        -1.257042         2.987389         2.184531
