19
Iteration:   211charge 0 multiplicity 1
 O         1.853867         2.582696         1.914675
 C         0.614016         1.875913         1.943550
 C         0.315305         1.009611         3.136869
 C        -0.299514        -0.019758         2.130359
 C        -1.377367         0.884861         1.299877
 C        -0.596484         0.434404         0.046491
 C         0.613901         0.437881         0.979773
 O         1.952509        -0.073203         0.698231
 C        -0.809936         2.367216         1.683681
 H         1.756493         3.324111         2.545536
 H         1.245663         0.628381         3.561559
 H        -0.302372         1.438896         3.918567
 H        -0.680421        -1.086213         2.404581
 H        -2.421771         0.770590         1.441410
 H        -0.761003        -0.609970        -0.092551
 H        -0.788753         0.877636        -0.920044
 H         2.223406         0.215667        -0.243441
 H        -0.844766         3.101075         0.864421
 H        -1.251568         2.693750         2.580138
