19
Iteration:  2729charge 0 multiplicity 1
 O         1.809669         2.668952         1.674272
 C         0.667502         1.844230         1.876209
 C         0.321977         0.947977         3.203980
 C        -0.410711         0.064937         2.210642
 C        -1.319117         0.941629         1.307369
 C        -0.539419         0.271590         0.103138
 C         0.584581         0.516789         1.071219
 O         1.922101         0.056387         0.864558
 C        -0.808928         2.337636         1.543766
 H         2.380886         2.314990         0.979515
 H         1.126282         0.308451         3.546199
 H        -0.166471         1.532801         4.016730
 H        -0.616552        -0.904650         2.579082
 H        -2.422724         0.580599         1.477814
 H        -0.586199        -0.800995         0.083554
 H        -0.591465         0.707772        -0.881821
 H         2.067051        -0.904762         1.230417
 H        -0.872900         3.069353         0.723526
 H        -1.387296         2.802771         2.340349
