19
Iteration:  2829
 O         1.603518         2.769615         1.639469
 C         0.615303         1.811501         1.886916
 C         0.453052         1.045597         3.127845
 C        -0.353560         0.028994         2.258386
 C        -1.345465         0.934051         1.284590
 C        -0.530149         0.425304         0.074215
 C         0.656623         0.326273         1.126428
 O         1.876259        -0.206770         0.959247
 C        -0.766945         2.362078         1.534812
 H         2.483374         2.539372         1.982637
 H         1.439320         0.575171         3.236968
 H         0.037955         1.589954         4.002716
 H        -0.567878        -1.068699         2.573216
 H        -2.512136         0.871178         1.371055
 H        -0.614897        -0.560262        -0.279243
 H        -0.399373         1.175539        -0.690829
 H         2.133613         0.100670         0.116120
 H        -0.654853         3.047443         0.703047
 H        -1.190664         2.907941         2.404716
