19
Iteration:  3223
 O         1.834330         2.667427         1.620031
 C         0.655002         1.817320         1.857175
 C         0.344451         1.079205         3.215742
 C        -0.331402         0.010121         2.304118
 C        -1.369264         0.830153         1.344165
 C        -0.487902         0.493398         0.077589
 C         0.610185         0.435958         1.131087
 O         1.818493        -0.210716         0.839398
 C        -0.793172         2.319193         1.526360
 H         1.586458         3.481735         1.155346
 H         1.200938         0.541671         3.587091
 H        -0.208385         1.639841         3.893541
 H        -0.544941        -1.055132         2.598798
 H        -2.365053         0.536359         1.295280
 H        -0.821636        -0.442323        -0.357365
 H        -0.570393         1.251862        -0.805093
 H         2.516050         0.497601         1.143645
 H        -0.964113         3.076808         0.713500
 H        -1.218209         2.720302         2.463790
