19
Iteration:    62charge 0 multiplicity 1
 O         1.748754         2.734873         1.832296
 C         0.666669         1.860044         1.964354
 C         0.306997         0.913571         3.229110
 C        -0.282348        -0.025796         2.157436
 C        -1.299506         0.903164         1.336900
 C        -0.609014         0.309074         0.018162
 C         0.623919         0.431998         0.972253
 O         1.842376        -0.110352         0.630914
 C        -0.714440         2.435884         1.663110
 H         2.116555         2.942583         2.693166
 H         1.150182         0.503783         3.886340
 H        -0.357798         1.462618         3.937247
 H        -0.431663        -1.142123         2.455494
 H        -2.495906         0.849038         1.301703
 H        -0.905647        -0.811179         0.065315
 H        -0.640472         0.795197        -0.968540
 H         2.321212         0.620932         0.245769
 H        -0.695980         3.204421         0.872101
 H        -1.237647         3.035445         2.509194
