19
Iteration:  4095charge 0 multiplicity 1
 O         1.850218         2.706024         1.576823
 C         0.649593         1.826719         1.833349
 C         0.334331         1.124640         3.207573
 C        -0.395673         0.046930         2.304990
 C        -1.375254         0.839921         1.319708
 C        -0.533567         0.283734         0.116796
 C         0.635946         0.390258         1.139080
 O         1.871545        -0.121526         0.829421
 C        -0.827332         2.340099         1.498164
 H         2.102517         3.011670         2.468918
 H         1.174263         0.603759         3.761525
 H        -0.281557         1.685339         3.880491
 H        -0.689445        -0.931807         2.465697
 H        -2.462753         0.594837         1.300839
 H        -0.677286        -0.756097        -0.114480
 H        -0.389632         1.112956        -0.584505
 H         2.463681         0.653894         1.033160
 H        -0.854972         2.853248         0.531062
 H        -1.201915         2.977924         2.225875
