19
Iteration:  2707charge 0 multiplicity 1
 O         1.704317         2.583733         1.606822
 C         0.607355         1.831316         1.847011
 C         0.336334         1.094227         3.219029
 C        -0.272489        -0.012617         2.254873
 C        -1.336352         0.906903         1.329045
 C        -0.562577         0.470018         0.038312
 C         0.571868         0.429368         1.069355
 O         1.974638         0.000246         0.911597
 C        -0.797551         2.318128         1.588390
 H         2.459316         1.937307         1.675131
 H         1.273003         0.826780         3.680395
 H        -0.386227         1.504813         3.951435
 H        -0.451068        -1.029535         2.509505
 H        -2.484545         0.763237         1.242746
 H        -0.775444        -0.518325        -0.316551
 H        -0.603779         1.229620        -0.719013
 H         2.306848        -0.866447         1.034655
 H        -0.887043         2.864405         0.638540
 H        -1.286271         2.897126         2.368696
