19
Iteration:  2775charge 0 multiplicity 1
 O         1.655002         2.814490         1.870570
 C         0.635416         1.860411         1.827712
 C         0.396321         1.106345         3.149079
 C        -0.291939         0.066879         2.304621
 C        -1.286216         0.851624         1.386963
 C        -0.535394         0.443983         0.067978
 C         0.675051         0.342754         1.057079
 O         1.865784        -0.233331         0.839800
 C        -0.772913         2.290902         1.449276
 H         2.302381         2.656687         1.183913
 H         1.360744         0.854018         3.594064
 H        -0.391983         1.573869         3.804915
 H        -0.569502        -1.035898         2.641548
 H        -2.455516         0.865180         1.350094
 H        -0.896843        -0.551611        -0.276972
 H        -0.526989         1.207010        -0.776565
 H         1.701840        -0.873039         0.124825
 H        -0.949959         2.750123         0.489338
 H        -1.160600         3.094512         2.114498
