19
Iteration:  4368charge 0 multiplicity 1
 O         1.743928         2.810955         1.736285
 C         0.609018         1.960242         1.858200
 C         0.382183         1.147078         3.133806
 C        -0.227874         0.057018         2.266471
 C        -1.292050         0.878556         1.329457
 C        -0.578130         0.242586         0.136746
 C         0.620214         0.366107         1.076176
 O         1.800723        -0.319864         0.887467
 C        -0.765227         2.327150         1.406455
 H         1.834499         3.589377         2.307637
 H         1.392477         0.802471         3.728916
 H        -0.293347         1.685688         3.864422
 H        -0.561139        -0.994722         2.601703
 H        -2.446000         0.736759         1.528981
 H        -0.893555        -0.821068        -0.026268
 H        -0.461468         0.606503        -0.988282
 H         2.554237         0.347350         0.648764
 H        -0.892275         2.766781         0.302855
 H        -1.338445         3.062648         2.077647
