19
Iteration:  1939charge 0 multiplicity 1
 O         1.600539         2.814723         1.805534
 C         0.684602         1.836063         1.915235
 C         0.576545         0.920935         3.110921
 C        -0.296148         0.036579         2.219709
 C        -1.317814         0.861054         1.335892
 C        -0.539519         0.632395         0.001799
 C         0.544285         0.471679         1.034123
 O         1.804661        -0.215260         0.982750
 C        -0.771788         2.261100         1.543435
 H         1.760317         2.738587         0.840725
 H         1.536691         0.398801         3.179738
 H         0.268219         1.273279         4.142949
 H        -0.214299        -1.039911         2.362498
 H        -2.300753         0.594545         1.338214
 H        -0.708323        -0.367687        -0.606058
 H        -0.680082         1.439879        -0.786216
 H         1.711121        -1.112276         0.534632
 H        -0.642725         2.842671         0.617370
 H        -1.194878         2.804290         2.361333
