19
Iteration:  2877
 O         1.837168         2.527269         1.611546
 C         0.639380         1.886490         1.872922
 C         0.418637         1.038380         3.162532
 C        -0.326993         0.062593         2.289367
 C        -1.444491         0.856756         1.277097
 C        -0.544750         0.329033         0.097904
 C         0.588419         0.508045         1.044467
 O         1.859581        -0.067375         0.862971
 C        -0.795855         2.364322         1.611415
 H         1.894586         3.284986         2.245648
 H         1.286962         0.515985         3.656104
 H        -0.292672         1.555075         3.806245
 H        -0.579107        -1.005385         2.434641
 H        -2.441042         0.673371         1.202584
 H        -0.828343        -0.802745         0.067586
 H        -0.444831         0.856331        -0.949528
 H         2.543036         0.546927         1.047768
 H        -0.841808         2.983608         0.669761
 H        -1.268573         2.871856         2.466163
