19
Iteration:  4503charge 0 multiplicity 1
 O         1.737045         2.854609         1.647236
 C         0.666101         1.883321         1.871545
 C         0.358956         1.158832         3.238256
 C        -0.344968         0.187939         2.333002
 C        -1.339513         0.812428         1.325170
 C        -0.505389         0.274216         0.132989
 C         0.680203         0.448161         1.098181
 O         1.785721        -0.379289         0.846485
 C        -0.767090         2.266860         1.368903
 H         1.774587         3.479751         2.398645
 H         1.197319         0.683859         3.661969
 H        -0.216526         1.690559         3.988045
 H        -0.426926        -0.871209         2.585883
 H        -2.371002         0.743653         1.463553
 H        -0.507997        -0.772343        -0.217069
 H        -0.616137         0.713034        -0.834601
 H         2.557873         0.213512         0.548788
 H        -0.870321         2.721643         0.432299
 H        -1.280473         2.797866         2.167543
