19
Iteration:  2233
 O         1.671140         2.672813         1.755510
 C         0.622225         1.819832         1.844855
 C         0.453274         0.996262         3.172887
 C        -0.343404         0.043393         2.266189
 C        -1.369892         0.857304         1.349758
 C        -0.542863         0.475962         0.015013
 C         0.612560         0.373820         1.088607
 O         1.919025        -0.196618         0.892107
 C        -0.752864         2.378255         1.524888
 H         1.507430         3.288071         1.010979
 H         1.338865         0.397582         3.355968
 H        -0.011670         1.550184         3.976485
 H        -0.725716        -0.997739         2.635695
 H        -2.427166         0.771271         1.433081
 H        -0.825242        -0.387294        -0.580717
 H        -0.403885         1.297839        -0.701264
 H         2.549728         0.627609         1.022266
 H        -0.723578         2.959548         0.559381
 H        -1.282858         2.915220         2.301641
