19
Iteration:  1718charge 0 multiplicity 1
 O         1.767478         2.662943         1.929199
 C         0.646341         1.824621         1.909928
 C         0.461813         1.007414         3.202005
 C        -0.350823         0.023396         2.235308
 C        -1.358120         0.828644         1.357714
 C        -0.607420         0.395165         0.103674
 C         0.557625         0.408263         1.072979
 O         1.838755         0.089507         0.631615
 C        -0.694371         2.301573         1.456351
 H         2.527750         2.184705         2.307311
 H         1.381900         0.549505         3.619454
 H        -0.081144         1.615106         3.966460
 H        -0.577815        -1.027667         2.429125
 H        -2.534447         0.856150         1.486172
 H        -0.919828        -0.667121        -0.094392
 H        -0.674847         1.140977        -0.674064
 H         1.880026        -0.649083         0.015512
 H        -0.759605         2.782934         0.447863
 H        -1.215260         3.107640         1.985163
