19
Iteration:  4965charge 0 multiplicity 1
 O         1.683848         2.735041         1.675312
 C         0.594135         1.867504         1.766194
 C         0.407299         1.174544         3.092160
 C        -0.305189         0.080421         2.288643
 C        -1.352785         0.811050         1.386973
 C        -0.520766         0.353643         0.129751
 C         0.587353         0.407209         1.090425
 O         1.916191        -0.228201         0.991519
 C        -0.787341         2.321935         1.376369
 H         2.269915         2.204886         2.251106
 H         1.468567         0.799204         3.309532
 H        -0.280718         1.795085         3.764933
 H        -0.598598        -0.836957         2.820688
 H        -2.409113         0.658102         1.557734
 H        -0.555086        -0.772919        -0.026166
 H        -0.725957         0.779285        -0.822239
 H         2.568045         0.492093         0.945896
 H        -0.874865         2.929619         0.368422
 H        -1.351774         3.035716         2.107739
