19
Iteration:  2680charge 0 multiplicity 1
 O         1.650974         2.737512         1.608705
 C         0.637728         1.821119         1.808047
 C         0.453230         1.041366         3.226547
 C        -0.416049         0.090914         2.295315
 C        -1.381116         0.848871         1.345561
 C        -0.442737         0.477655         0.083846
 C         0.595971         0.398652         1.115168
 O         1.919306        -0.111332         0.883516
 C        -0.801053         2.266436         1.535518
 H         2.423248         2.463982         2.151065
 H         1.439873         0.566202         3.501379
 H        -0.022581         1.450903         4.123938
 H        -0.745575        -0.978133         2.540565
 H        -2.379923         0.625088         1.225335
 H        -0.643522        -0.423894        -0.568332
 H        -0.350630         1.335169        -0.639826
 H         2.116934        -0.891883         0.403908
 H        -0.965029         2.923709         0.651183
 H        -1.167265         2.968192         2.329718
