19
Iteration:    75
 O         1.755010         2.829154         1.852507
 C         0.693508         1.791133         1.931441
 C         0.392125         0.911228         3.188292
 C        -0.285865         0.022952         2.197012
 C        -1.287047         0.948268         1.297210
 C        -0.628017         0.436227         0.046628
 C         0.589391         0.416617         1.019900
 O         1.828271        -0.137839         0.712975
 C        -0.724169         2.263421         1.588583
 H         1.989823         3.061584         2.783759
 H         1.265038         0.458445         3.678183
 H        -0.352964         1.301180         3.876088
 H        -0.792741        -0.954816         2.265934
 H        -2.424103         0.683903         1.626563
 H        -0.927843        -0.609811        -0.278626
 H        -0.684816         1.042814        -0.853052
 H         2.205646         0.353929        -0.070159
 H        -0.810220         2.829825         0.695184
 H        -1.207356         2.687354         2.511550
