19
Iteration:  1923charge 0 multiplicity 1
 O         1.678715         2.809383         1.729526
 C         0.594325         1.816324         1.914910
 C         0.499288         0.850964         3.219438
 C        -0.312434        -0.046169         2.192881
 C        -1.357451         0.914570         1.315072
 C        -0.558673         0.500860         0.052940
 C         0.651846         0.440598         1.073300
 O         1.881443        -0.125408         0.894810
 C        -0.756065         2.362929         1.580236
 H         1.880115         2.970927         0.785661
 H         1.505996         0.437932         3.428349
 H         0.076520         1.191155         4.162653
 H        -0.736561        -1.038877         2.367034
 H        -2.541837         0.876807         1.330629
 H        -0.882877        -0.410860        -0.316821
 H        -0.450269         1.218657        -0.755427
 H         1.777079        -0.896189         0.387770
 H        -0.836802         2.969750         0.667756
 H        -1.293856         3.053055         2.293778
