19
Iteration:  3137
 O         1.712526         2.695828         1.801276
 C         0.593600         1.853423         1.796808
 C         0.463454         1.076528         3.139131
 C        -0.262300         0.078588         2.335417
 C        -1.300674         0.921758         1.324192
 C        -0.509767         0.436570         0.062417
 C         0.594219         0.378122         1.109729
 O         1.809243        -0.289544         0.810215
 C        -0.831548         2.317996         1.504779
 H         1.669980         3.439901         1.197364
 H         1.408800         0.671339         3.549198
 H        -0.001825         1.583009         3.980775
 H        -0.567216        -0.939156         2.639448
 H        -2.299686         0.646204         1.332276
 H        -0.719114        -0.565090        -0.283878
 H        -0.422669         1.152828        -0.790971
 H         2.441574         0.415595         0.971572
 H        -0.881750         2.869409         0.571334
 H        -1.356164         2.849988         2.297393
