19
Iteration:  1099
 O         1.815930         2.681111         2.181881
 C         0.700135         1.854177         1.832853
 C         0.401141         1.062158         3.119988
 C        -0.239485         0.060768         2.206082
 C        -1.344207         0.877675         1.352546
 C        -0.678190         0.317470         0.099307
 C         0.630992         0.507618         0.943916
 O         1.755762        -0.217032         0.594535
 C        -0.737222         2.350303         1.497274
 H         1.756815         3.407205         1.540847
 H         1.354221         0.766194         3.553336
 H        -0.101566         1.447558         4.004804
 H        -0.509316        -0.985559         2.536550
 H        -2.408022         0.961315         1.470146
 H        -0.704255        -0.778148         0.020397
 H        -0.769012         0.832213        -0.860905
 H         2.403255         0.350763         0.266777
 H        -1.103187         2.810322         0.590352
 H        -1.274785         2.785821         2.351883
