19
Iteration:   142charge 0 multiplicity 1
 O         1.587982         2.908325         1.758553
 C         0.732183         1.740859         1.826499
 C         0.387829         0.824870         3.192746
 C        -0.393536         0.012456         2.157764
 C        -1.356245         0.917381         1.290561
 C        -0.546970         0.578044        -0.017582
 C         0.677537         0.506555         1.050634
 O         1.878012        -0.292505         0.825724
 C        -0.744802         2.304859         1.760636
 H         2.464083         2.590824         1.541156
 H         1.238270         0.378520         3.614566
 H        -0.166001         1.342259         3.945708
 H        -0.673097        -0.922088         2.409708
 H        -2.446376         0.695263         1.450974
 H        -0.561717        -0.428552        -0.367206
 H        -0.640960         1.198169        -0.914902
 H         2.529406         0.344983         0.553560
 H        -0.632932         3.085294         1.057095
 H        -1.060817         2.633920         2.739471
