19
Iteration:  1034charge 0 multiplicity 1
 O         1.724073         2.636404         1.667875
 C         0.634886         1.808833         1.950702
 C         0.548362         0.872238         3.086452
 C        -0.433192         0.032111         2.162127
 C        -1.341741         0.973473         1.284378
 C        -0.511044         0.587375         0.018237
 C         0.589244         0.458489         1.046028
 O         1.865706        -0.132747         0.859054
 C        -0.845822         2.277723         1.771312
 H         1.520177         3.028338         0.798891
 H         1.435997         0.277662         3.301615
 H         0.357452         1.225939         4.036716
 H        -0.683144        -1.057895         2.384987
 H        -2.370273         0.846578         1.322064
 H        -0.602031        -0.386926        -0.463194
 H        -0.437716         1.326303        -0.740235
 H         2.394788         0.167483         1.708919
 H        -0.994081         3.128538         1.130684
 H        -1.162233         2.650875         2.769131
