19
Iteration:  1980
 O         1.715769         2.780034         1.857171
 C         0.620377         1.895141         1.960905
 C         0.378859         0.997920         3.154670
 C        -0.290572         0.069991         2.203163
 C        -1.312787         0.916108         1.249422
 C        -0.543145         0.390523         0.058644
 C         0.679556         0.371909         1.054564
 O         1.887277        -0.191463         0.658085
 C        -0.793666         2.360665         1.681152
 H         1.763481         3.109906         0.948968
 H         1.266471         0.559152         3.498110
 H        -0.291563         1.483995         3.939123
 H        -0.643558        -0.873780         2.544010
 H        -2.421346         0.822740         1.538329
 H        -0.921727        -0.579582        -0.122413
 H        -0.401490         0.877221        -0.892501
 H         1.881931        -1.120980         1.070997
 H        -0.756172         3.073174         0.822092
 H        -1.394611         2.602340         2.572339
