19
Iteration:  3478charge 0 multiplicity 1
 O         1.808359         2.763495         1.772572
 C         0.688541         1.844884         1.866535
 C         0.374587         1.086048         3.233921
 C        -0.385110         0.059848         2.300986
 C        -1.289983         0.890518         1.328662
 C        -0.582638         0.387334         0.082099
 C         0.566151         0.409356         0.972761
 O         1.879437        -0.262795         0.758905
 C        -0.722500         2.281626         1.564801
 H         1.553618         3.451080         1.120464
 H         1.275082         0.681808         3.758630
 H        -0.227955         1.675220         3.859669
 H        -0.712483        -0.923889         2.655539
 H        -2.430189         0.612786         1.386463
 H        -1.007999        -0.636597        -0.001028
 H        -0.710409         0.823757        -0.893424
 H         2.437649         0.545257         1.052409
 H        -0.997184         2.765547         0.585198
 H        -1.376613         2.862180         2.289656
