19
Iteration:   650charge 0 multiplicity 1
 O         1.824733         2.639451         1.981726
 C         0.661645         1.893172         1.926656
 C         0.347909         1.075963         3.237693
 C        -0.225182         0.021992         2.166292
 C        -1.331139         0.884258         1.327911
 C        -0.526408         0.363870         0.119673
 C         0.668048         0.474990         1.001915
 O         1.729740        -0.174716         0.452370
 C        -0.828526         2.330797         1.588888
 H         1.736576         3.599127         1.828051
 H         1.204044         0.751791         3.807384
 H        -0.382571         1.610923         3.957203
 H        -0.637455        -1.019803         2.551946
 H        -2.356985         0.636469         1.617951
 H        -0.918011        -0.710539         0.068040
 H        -0.517557         0.651058        -0.960486
 H         2.428946        -0.117334         1.136022
 H        -0.745801         3.011329         0.749435
 H        -1.289124         2.997035         2.374270
