19
Iteration:  1973charge 0 multiplicity 1
 O         1.720804         2.835173         1.857451
 C         0.644596         1.867576         1.918894
 C         0.391133         1.015602         3.085661
 C        -0.319914         0.072626         2.234036
 C        -1.315128         0.929316         1.269192
 C        -0.555561         0.460975         0.030438
 C         0.648894         0.361125         1.061924
 O         1.903912        -0.247995         0.730168
 C        -0.820297         2.342922         1.690021
 H         1.846597         3.041364         0.917169
 H         1.371032         0.533182         3.401955
 H        -0.148465         1.397947         3.958485
 H        -0.413226        -1.040752         2.389098
 H        -2.311269         0.630436         1.281279
 H        -0.886567        -0.675706        -0.024345
 H        -0.452891         1.012050        -0.950901
 H         1.928431        -1.271341         0.930618
 H        -1.049771         3.260083         1.129207
 H        -1.373080         2.518430         2.600049
