19
Iteration:  4828
 O         1.677162         2.848857         1.743590
 C         0.711985         1.848224         1.864043
 C         0.340261         1.167743         3.170735
 C        -0.327357         0.108870         2.324322
 C        -1.344643         0.856052         1.343356
 C        -0.566633         0.284386         0.175368
 C         0.644685         0.330922         1.157752
 O         1.886464        -0.297126         0.792030
 C        -0.734422         2.263119         1.362991
 H         1.508689         3.604569         1.159976
 H         1.308364         0.772734         3.532193
 H        -0.213473         1.723488         3.873615
 H        -0.845767        -0.917743         2.670085
 H        -2.439432         0.730935         1.627210
 H        -0.817154        -0.654041        -0.333000
 H        -0.422846         0.970424        -0.760273
 H         2.727854         0.191642         1.110039
 H        -0.760596         2.688535         0.347115
 H        -1.162793         3.131708         1.939349
