19
Iteration:  1443charge 0 multiplicity 1
 O         1.781175         2.659922         1.845292
 C         0.628259         1.838413         1.831092
 C         0.440834         0.965552         3.104755
 C        -0.304695         0.057186         2.192748
 C        -1.386336         0.918700         1.341623
 C        -0.579978         0.443441         0.089784
 C         0.632728         0.418619         1.012386
 O         1.859075        -0.130199         0.881707
 C        -0.783071         2.338809         1.575657
 H         1.677144         3.607693         1.710258
 H         1.363116         0.508829         3.407287
 H        -0.016230         1.457407         3.983736
 H        -0.464906        -0.979395         2.426966
 H        -2.484959         0.865522         1.279234
 H        -0.749908        -0.577372        -0.170331
 H        -0.418574         1.099414        -0.686210
 H         1.875119        -0.756042         0.099286
 H        -1.043317         2.978560         0.656130
 H        -1.163670         2.940302         2.407363
