19
Iteration:   749charge 0 multiplicity 1
 O         1.764946         2.747527         1.825357
 C         0.659671         1.858198         1.837878
 C         0.530852         0.955223         3.130123
 C        -0.338568         0.048540         2.211788
 C        -1.373741         0.840276         1.309956
 C        -0.562218         0.612292         0.030651
 C         0.572365         0.447103         1.023445
 O         1.865302        -0.210295         0.868973
 C        -0.848765         2.287195         1.691167
 H         1.827138         3.077254         0.894365
 H         1.493618         0.488915         3.240616
 H         0.104525         1.423503         4.053593
 H        -0.592670        -1.062415         2.280237
 H        -2.431788         0.534040         1.381730
 H        -0.668888        -0.346129        -0.493639
 H        -0.368247         1.338306        -0.718444
 H         1.633010        -0.875293         0.200313
 H        -1.107956         3.067666         1.026256
 H        -1.059121         2.568315         2.730990
