19
Iteration:  4724charge 0 multiplicity 1
 O         1.648761         2.764403         1.535918
 C         0.600613         1.902483         1.823135
 C         0.380350         1.129506         3.161695
 C        -0.321212         0.072363         2.289631
 C        -1.394963         0.852391         1.314773
 C        -0.440794         0.281971         0.105914
 C         0.650048         0.443140         1.163510
 O         1.913608        -0.251258         1.009062
 C        -0.797306         2.325940         1.446442
 H         2.477160         2.378143         1.887865
 H         1.288508         0.750519         3.629710
 H        -0.247414         1.590330         4.043632
 H        -0.718005        -0.841133         2.575192
 H        -2.495465         0.905433         1.372931
 H        -0.775823        -0.798338         0.120080
 H        -0.520209         0.876159        -0.795223
 H         2.398754         0.357454         0.497242
 H        -0.736358         2.935140         0.539414
 H        -1.206605         2.931741         2.260629
