19
Iteration:   294
 O         1.749010         2.701964         1.920141
 C         0.585995         1.883964         1.935795
 C         0.447472         0.896271         3.084029
 C        -0.275474         0.000571         2.151535
 C        -1.359400         0.918400         1.286417
 C        -0.521979         0.480645        -0.041937
 C         0.627452         0.510724         0.982152
 O         1.873703        -0.200179         0.723246
 C        -0.872760         2.350441         1.789685
 H         2.006015         2.946860         1.015471
 H         1.439160         0.522535         3.291101
 H        -0.028919         1.284912         4.019350
 H        -0.368582        -0.986270         2.208527
 H        -2.400772         0.874296         1.266515
 H        -0.916064        -0.521497        -0.228981
 H        -0.595766         1.233970        -0.863303
 H         2.221405        -0.485333         1.555753
 H        -0.983432         3.120528         1.016462
 H        -1.325033         2.879893         2.687759
