19
Iteration:  1187
 O         1.744574         2.599616         1.583840
 C         0.627335         1.845041         1.875616
 C         0.521963         0.920756         3.144472
 C        -0.351433         0.039169         2.214254
 C        -1.327277         0.847700         1.266680
 C        -0.442028         0.708381         0.077388
 C         0.586255         0.426994         1.118297
 O         1.836103        -0.222435         0.800746
 C        -0.930316         2.338689         1.769325
 H         1.496555         3.518185         1.423850
 H         1.589025         0.398053         3.207402
 H         0.118962         1.340345         4.131240
 H        -0.618962        -1.113768         2.545672
 H        -2.474526         0.593450         1.126173
 H        -0.578571        -0.290322        -0.462528
 H        -0.160813         1.571427        -0.558858
 H         2.417565         0.219234         1.470688
 H        -1.289840         3.114402         1.079592
 H        -1.417956         2.475410         2.796550
