19
Iteration:   292charge 0 multiplicity 1
 O         1.737571         2.700319         1.920657
 C         0.582371         1.894352         1.941616
 C         0.462675         0.909644         3.060886
 C        -0.281326         0.011918         2.134866
 C        -1.353858         0.923846         1.275915
 C        -0.517467         0.489554        -0.038832
 C         0.640280         0.495837         0.964768
 O         1.872850        -0.213528         0.737390
 C        -0.868250         2.350582         1.812391
 H         1.872665         2.910949         0.982234
 H         1.488017         0.564367         3.330771
 H         0.003387         1.275996         4.040015
 H        -0.478169        -1.140658         2.213043
 H        -2.462001         0.870866         1.252914
 H        -0.982544        -0.524479        -0.212716
 H        -0.549805         1.196449        -0.863262
 H         2.323957        -0.483323         1.616998
 H        -1.052570         3.148963         1.090694
 H        -1.314459         2.875087         2.715051
