19
Iteration:  1873charge 0 multiplicity 1
 O         1.871869         2.516547         1.957596
 C         0.619089         1.818516         1.934344
 C         0.387604         1.070596         3.184828
 C        -0.264859         0.079752         2.302757
 C        -1.380878         0.853853         1.368206
 C        -0.539582         0.389656         0.104765
 C         0.568319         0.403559         1.080987
 O         1.862077         0.110109         0.630614
 C        -0.855610         2.317259         1.410775
 H         1.979509         2.939767         1.086352
 H         1.213166         0.593439         3.656486
 H        -0.278981         1.541798         3.978633
 H        -0.480987        -0.927626         2.606463
 H        -2.403768         0.711105         1.490533
 H        -0.785524        -0.705569        -0.304318
 H        -0.568625         1.056481        -0.824104
 H         1.990029        -0.814800         0.291542
 H        -0.968378         2.756855         0.374579
 H        -1.255526         3.021208         2.117194
