19
Iteration:   163
 O         1.610558         2.761738         1.824193
 C         0.636761         1.811915         2.007148
 C         0.404829         0.863009         3.201077
 C        -0.315337        -0.012716         2.135869
 C        -1.263158         0.963371         1.321821
 C        -0.561852         0.501761         0.073994
 C         0.576869         0.439608         1.055164
 O         1.878519        -0.158535         0.737860
 C        -0.748576         2.327793         1.568130
 H         2.426400         2.223868         1.626755
 H         1.362690         0.456971         3.485269
 H        -0.180867         1.257817         4.031418
 H        -0.424648        -1.021884         2.229182
 H        -2.396015         0.840353         1.413904
 H        -1.055489        -0.398515        -0.348820
 H        -0.448219         1.281753        -0.699191
 H         2.514672         0.546200         0.551028
 H        -0.592995         2.752551         0.590406
 H        -1.206771         3.063988         2.288175
