19
Iteration:  2613charge 0 multiplicity 1
 O         1.660640         2.911258         1.846716
 C         0.624166         1.860071         1.838997
 C         0.469883         1.104010         3.194241
 C        -0.254670         0.117293         2.300085
 C        -1.278327         0.763778         1.323523
 C        -0.507590         0.416734         0.086663
 C         0.584799         0.303470         1.074836
 O         1.769987        -0.283757         0.835972
 C        -0.778379         2.299312         1.402384
 H         2.414619         2.297616         1.943665
 H         1.475857         0.788549         3.554709
 H        -0.091914         1.609656         4.022256
 H        -0.687702        -0.912876         2.702519
 H        -2.343413         0.696883         1.363336
 H        -0.680568        -0.519804        -0.482269
 H        -0.707911         1.217522        -0.688994
 H         2.258942         0.024104        -0.015518
 H        -0.932625         2.784170         0.417198
 H        -1.331947         2.989918         2.134046
