19
Iteration:   708
 O         1.726148         2.621222         1.738315
 C         0.625075         1.802576         1.903321
 C         0.446972         0.890934         3.224216
 C        -0.289047        -0.016494         2.178644
 C        -1.369445         0.939968         1.331855
 C        -0.594373         0.483249         0.042161
 C         0.604179         0.481415         1.064392
 O         1.839746        -0.109326         0.802324
 C        -0.738113         2.363506         1.626450
 H         1.746492         3.109187         0.902918
 H         1.440923         0.418598         3.457237
 H         0.089015         1.304265         4.175771
 H        -0.526728        -1.062620         2.302666
 H        -2.356338         0.792285         1.473147
 H        -0.942934        -0.507339        -0.312855
 H        -0.614373         1.299385        -0.770978
 H         2.453019         0.673290         0.875562
 H        -0.753690         3.074301         0.807464
 H        -1.228220         2.750355         2.503700
