19
Iteration:   421charge 0 multiplicity 1
 O         1.546678         2.874247         1.656008
 C         0.641208         1.770933         1.864996
 C         0.512342         0.784915         3.177362
 C        -0.398671         0.040893         2.178113
 C        -1.324342         0.984311         1.264706
 C        -0.465575         0.593088        -0.006573
 C         0.644309         0.485270         1.034448
 O         1.911585        -0.209580         0.883084
 C        -0.786924         2.323814         1.846531
 H         2.467696         2.544474         1.497191
 H         1.423398         0.204562         3.443802
 H         0.012006         1.111550         4.120139
 H        -0.779383        -1.121564         2.179869
 H        -2.396655         0.690772         1.258119
 H        -0.615947        -0.353973        -0.546199
 H        -0.502476         1.254706        -0.854219
 H         1.816010        -1.095069         0.466402
 H        -0.857814         3.173408         1.173048
 H        -1.184899         2.564230         2.837548
