19
Iteration:  2865
 O         1.813800         2.615674         1.572068
 C         0.641449         1.833625         1.880573
 C         0.393762         1.038096         3.146121
 C        -0.330799         0.034983         2.165907
 C        -1.366413         0.863762         1.334231
 C        -0.638171         0.388312         0.059942
 C         0.599342         0.467948         1.098706
 O         1.883696        -0.098762         0.961007
 C        -0.778829         2.327773         1.541835
 H         2.190820         3.019636         2.384439
 H         1.361443         0.619948         3.556674
 H        -0.113697         1.453117         4.026666
 H        -0.424944        -1.022479         2.551112
 H        -2.376873         0.796628         1.484508
 H        -0.807180        -0.686155        -0.285691
 H        -0.934925         1.075374        -0.798827
 H         2.467563         0.606824         1.291644
 H        -0.912289         2.967778         0.645098
 H        -1.266680         2.830071         2.391724
