19
Iteration:  4720charge 0 multiplicity 1
 O         1.646530         2.782127         1.545682
 C         0.607452         1.901145         1.833460
 C         0.359910         1.138292         3.149558
 C        -0.341413         0.126235         2.282542
 C        -1.380269         0.831532         1.320615
 C        -0.424587         0.287938         0.155022
 C         0.638582         0.457503         1.141456
 O         1.895698        -0.281175         0.995944
 C        -0.782820         2.305794         1.451852
 H         2.458704         2.354288         1.857056
 H         1.279389         0.727251         3.621646
 H        -0.130115         1.570418         4.073383
 H        -0.626800        -1.009558         2.471537
 H        -2.542677         0.803347         1.293881
 H        -0.628640        -0.753083         0.125461
 H        -0.483464         0.820082        -0.799757
 H         2.472102         0.329673         0.407364
 H        -0.759687         2.938761         0.540407
 H        -1.255982         3.013506         2.243346
