19
Iteration:  2394
 O         1.751740         2.563187         1.603336
 C         0.595637         1.821005         1.884080
 C         0.404319         1.017557         3.270982
 C        -0.329963         0.039421         2.333590
 C        -1.374580         0.868068         1.310433
 C        -0.484262         0.533640        -0.008586
 C         0.595194         0.387381         1.171257
 O         1.886649        -0.091590         0.904446
 C        -0.789221         2.317727         1.528366
 H         1.751487         3.015885         0.747567
 H         1.255943         0.392390         3.442540
 H        -0.082207         1.582294         4.111746
 H        -0.592202        -1.111185         2.519778
 H        -2.444309         0.698920         1.354678
 H        -0.583441        -0.399842        -0.459352
 H        -0.541627         1.307298        -0.679144
 H         2.314994         0.814657         0.752995
 H        -0.706472         2.730963         0.529967
 H        -1.403973         2.987598         2.196431
