19
Iteration:  4416
 O         1.750378         2.564935         1.450959
 C         0.575375         1.844685         1.877453
 C         0.362504         1.060447         3.231333
 C        -0.328674         0.101029         2.294858
 C        -1.292648         0.869903         1.324496
 C        -0.436483         0.333082         0.110874
 C         0.603762         0.377315         1.172682
 O         1.855564        -0.114240         0.960107
 C        -0.838991         2.396727         1.474388
 H         1.832399         3.380216         1.985980
 H         1.332327         0.814265         3.534004
 H        -0.117136         1.551805         4.054380
 H        -0.686035        -0.893854         2.694131
 H        -2.277838         0.604631         1.286802
 H        -0.721958        -0.781768        -0.203063
 H        -0.349583         0.997987        -0.768652
 H         2.396533         0.773198         0.861289
 H        -0.787867         2.882849         0.558523
 H        -1.467940         3.040623         2.097130
