19
Iteration:  2365charge 0 multiplicity 1
 O         1.825234         2.512817         1.673610
 C         0.634899         1.824299         1.758786
 C         0.384640         1.032172         3.099139
 C        -0.437886         0.114171         2.258961
 C        -1.340136         0.933091         1.311991
 C        -0.501095         0.315372         0.071733
 C         0.614400         0.368691         1.096369
 O         1.949703         0.008007         0.890797
 C        -0.873096         2.356550         1.676654
 H         1.763961         3.308358         1.107594
 H         1.235957         0.428846         3.523436
 H         0.029179         1.680584         3.902497
 H        -0.790944        -0.941647         2.459992
 H        -2.399589         0.737216         1.353625
 H        -0.829270        -0.765162        -0.095948
 H        -0.571112         0.857815        -1.007962
 H         2.358933         0.614298         1.501197
 H        -1.030660         3.092237         0.880265
 H        -1.352349         2.707083         2.573353
