19
Iteration:   262charge 0 multiplicity 1
 O         1.661312         2.819139         1.849000
 C         0.693611         1.776597         1.874878
 C         0.509319         0.821148         3.154128
 C        -0.391223         0.020439         2.227727
 C        -1.360016         0.915283         1.251424
 C        -0.482189         0.604467        -0.037657
 C         0.618897         0.446135         1.012840
 O         1.821518        -0.249998         0.783273
 C        -0.777012         2.270834         1.746010
 H         1.292712         3.373694         1.102509
 H         1.336091         0.197158         3.405275
 H         0.150777         1.286338         4.079491
 H        -0.584393        -0.924716         2.365094
 H        -2.408168         0.859495         1.209464
 H        -0.891837        -0.196400        -0.637095
 H        -0.356180         1.497278        -0.718166
 H         2.624958         0.214548         1.159379
 H        -0.866134         3.067732         0.968576
 H        -1.175272         2.643353         2.713957
