19
Iteration:  2056
 O         1.770129         2.601713         1.820509
 C         0.628913         1.828851         1.923922
 C         0.381906         0.998615         3.125324
 C        -0.316057         0.059161         2.180586
 C        -1.384842         0.981377         1.279170
 C        -0.563228         0.347306         0.098007
 C         0.641274         0.493780         1.023057
 O         1.895426        -0.109716         0.836365
 C        -0.770896         2.303672         1.654166
 H         1.714941         3.109705         0.976514
 H         1.302117         0.659099         3.541552
 H        -0.198673         1.388965         4.009965
 H        -0.683973        -0.923796         2.324723
 H        -2.521140         0.830294         1.104859
 H        -0.622906        -0.658215        -0.059282
 H        -0.636633         0.845738        -0.840306
 H         2.302841         0.376976         0.079346
 H        -0.815683         3.082736         0.846896
 H        -1.303272         2.650450         2.619754
