19
Iteration:  1046charge 0 multiplicity 1
 O         1.652255         2.707742         1.718002
 C         0.674120         1.729326         1.874693
 C         0.553547         0.877689         3.182388
 C        -0.421017         0.055633         2.197967
 C        -1.381185         0.925833         1.298523
 C        -0.418330         0.590221         0.041369
 C         0.613972         0.431975         1.086905
 O         1.794910        -0.151574         0.767891
 C        -0.766386         2.325360         1.750955
 H         1.454070         3.156387         0.881052
 H         1.421018         0.178196         3.295162
 H         0.207687         1.376215         4.032779
 H        -0.870295        -1.020991         2.408673
 H        -2.455742         0.760060         1.161048
 H        -0.770402        -0.324903        -0.465449
 H        -0.199211         1.396958        -0.616907
 H         2.480168         0.040974         1.340468
 H        -0.826071         2.935778         0.862672
 H        -1.268886         2.758947         2.648200
