19
Iteration:  4673
 O         1.546867         2.980129         1.734401
 C         0.647384         1.920830         1.792431
 C         0.379795         1.195590         3.098968
 C        -0.280008         0.070581         2.291113
 C        -1.271991         0.887787         1.337400
 C        -0.519374         0.262257         0.111080
 C         0.705250         0.240995         1.089577
 O         1.880066        -0.438956         0.979262
 C        -0.805594         2.387077         1.404321
 H         2.411113         2.754533         2.145444
 H         1.264527         0.737357         3.554304
 H        -0.016456         1.745523         3.859780
 H        -0.522793        -0.871089         2.801956
 H        -2.259379         0.812562         1.570120
 H        -1.165856        -0.512957        -0.170786
 H        -0.361516         1.015408        -0.702733
 H         2.220742        -0.492721         0.065295
 H        -0.865470         2.856898         0.389508
 H        -1.220266         3.103595         2.088432
