19
Iteration:   178
 O         1.758404         2.681538         1.894203
 C         0.578845         1.845471         1.961206
 C         0.441694         0.919003         3.205770
 C        -0.284501        -0.028852         2.254949
 C        -1.397384         0.868172         1.308585
 C        -0.570177         0.488151         0.005120
 C         0.614909         0.433236         1.015767
 O         1.843220        -0.070764         0.714793
 C        -0.774037         2.372878         1.510206
 H         2.481654         2.235170         2.347748
 H         1.407702         0.448979         3.406580
 H        -0.043477         1.264930         4.113749
 H        -0.736550        -1.050554         2.488361
 H        -2.422700         0.720700         1.406968
 H        -0.643033        -0.522628        -0.302655
 H        -0.618621         1.171384        -0.846074
 H         2.290272         0.612060         0.219587
 H        -0.744486         3.006871         0.597563
 H        -1.326334         2.956477         2.201821
