19
Iteration:  3883charge 0 multiplicity 1
 O         1.621653         2.874370         1.750425
 C         0.622253         1.810840         1.797399
 C         0.473084         1.037707         3.134518
 C        -0.238897         0.011016         2.296729
 C        -1.347419         0.919975         1.307525
 C        -0.602807         0.399124         0.059280
 C         0.579023         0.309446         1.091340
 O         1.866239        -0.295569         0.946344
 C        -0.736375         2.400241         1.422602
 H         2.438322         2.508647         2.176115
 H         1.406540         0.676593         3.521797
 H        -0.025518         1.702766         3.901345
 H        -0.640791        -0.990664         2.699643
 H        -2.411326         0.724826         1.433592
 H        -0.933651        -0.652111        -0.148359
 H        -0.508719         1.210003        -0.774338
 H         2.394280         0.350804         0.447672
 H        -0.780070         3.009626         0.522010
 H        -1.151802         2.926096         2.274685
