19
Iteration:  2193charge 0 multiplicity 1
 O         1.911877         2.466119         1.813588
 C         0.618412         1.867066         1.933240
 C         0.276293         1.085815         3.225360
 C        -0.438056         0.110396         2.275783
 C        -1.375651         0.798169         1.310440
 C        -0.537783         0.243623         0.099280
 C         0.633203         0.525091         1.067590
 O         1.895136         0.097496         0.641539
 C        -0.800720         2.344537         1.536403
 H         2.105379         2.591192         0.864030
 H         1.170261         0.653688         3.867104
 H        -0.418702         1.662194         3.920998
 H        -0.601401        -0.919522         2.512800
 H        -2.424698         0.467704         1.436182
 H        -0.737886        -0.882014        -0.059298
 H        -0.560085         0.776788        -0.871856
 H         2.546416         0.533926         1.121745
 H        -0.768334         2.977652         0.592987
 H        -1.142554         2.817093         2.469103
