19
Iteration:  4770charge 0 multiplicity 1
 O         1.774974         2.615315         1.495855
 C         0.631357         1.839280         1.804640
 C         0.371238         1.080549         3.176108
 C        -0.365550         0.073075         2.377632
 C        -1.371093         0.875153         1.314446
 C        -0.529597         0.305458         0.105131
 C         0.621703         0.459000         1.123041
 O         1.917115        -0.084782         1.002192
 C        -0.889983         2.326508         1.401018
 H         2.239844         2.853598         2.326514
 H         1.361828         0.704005         3.555044
 H        -0.001015         1.650377         4.029977
 H        -0.654782        -0.912540         2.616104
 H        -2.374012         0.722144         1.460682
 H        -0.437144        -0.836239         0.083597
 H        -0.428296         0.950250        -0.807122
 H         2.524541         0.611473         1.133228
 H        -0.968417         2.760743         0.381511
 H        -1.370683         2.886808         2.133703
