19
Iteration:   921
 O         1.718145         2.768174         1.822009
 C         0.639851         1.820944         1.931384
 C         0.445912         0.976072         3.167691
 C        -0.208762         0.000150         2.132777
 C        -1.313411         0.895567         1.341436
 C        -0.610989         0.566050         0.031852
 C         0.615124         0.476012         1.013122
 O         1.801669        -0.221917         0.674461
 C        -0.804169         2.261411         1.629379
 H         2.199889         2.920497         2.648804
 H         1.378102         0.537982         3.547053
 H        -0.034484         1.380466         4.123147
 H        -0.599190        -0.998039         2.322096
 H        -2.487587         0.707200         1.496121
 H        -0.896249        -0.442474        -0.404381
 H        -0.517452         1.516960        -0.674862
 H         2.064849        -0.638669         1.460019
 H        -0.867542         2.766371         0.601684
 H        -1.134847         2.947668         2.466514
