19
Iteration:  2661
 O         1.612988         2.915803         1.658244
 C         0.678540         1.844937         1.934210
 C         0.437270         0.988032         3.156075
 C        -0.320362         0.035146         2.249290
 C        -1.312546         0.904637         1.216652
 C        -0.511833         0.316637         0.047455
 C         0.620508         0.457851         1.125676
 O         1.862224        -0.222092         0.900964
 C        -0.765008         2.333613         1.585832
 H         2.490029         2.568860         1.907830
 H         1.355661         0.446092         3.491754
 H        -0.035923         1.508887         3.977457
 H        -0.670577        -0.881740         2.550252
 H        -2.413717         0.888044         1.335054
 H        -1.039427        -0.620362        -0.006622
 H        -0.374632         0.738993        -0.893520
 H         1.799119        -0.770877         0.170881
 H        -0.699412         3.160184         0.821385
 H        -1.348534         2.693806         2.430922
