19
Iteration:   114charge 0 multiplicity 1
 O         1.600402         2.805249         1.758055
 C         0.575157         1.887999         1.918342
 C         0.593642         0.880813         3.156380
 C        -0.218590         0.024141         2.115329
 C        -1.283393         0.944635         1.287065
 C        -0.452341         0.620273        -0.001796
 C         0.621622         0.412349         1.003970
 O         1.752157        -0.331258         0.898035
 C        -0.914326         2.325047         1.691897
 H         2.201424         2.611906         2.484098
 H         1.661114         0.507997         3.200096
 H         0.169806         1.149824         4.160546
 H        -0.624158        -1.010795         2.428991
 H        -2.315911         0.707829         1.343322
 H        -0.774821        -0.341289        -0.489847
 H        -0.292010         1.362464        -0.816668
 H         2.239510        -0.061683         0.077809
 H        -0.955084         3.157467         0.920890
 H        -1.434789         2.580999         2.654264
