19
Iteration:  3962
 O         1.787684         2.577830         1.581135
 C         0.664780         1.742262         1.781781
 C         0.419654         1.086046         3.186692
 C        -0.470886         0.103020         2.346364
 C        -1.399089         0.866322         1.311144
 C        -0.635458         0.399467         0.083518
 C         0.659096         0.397369         1.033158
 O         1.996879        -0.059891         0.962047
 C        -0.774655         2.279487         1.519200
 H         1.607762         3.346416         2.176794
 H         1.318354         0.584960         3.546362
 H         0.011220         1.798400         3.956443
 H        -0.672271        -0.971389         2.711971
 H        -2.501622         0.850525         1.348758
 H        -1.068524        -0.533175        -0.388995
 H        -0.844492         1.195644        -0.779538
 H         2.601410         0.766054         1.243297
 H        -0.764347         2.807720         0.530530
 H        -1.208276         2.758830         2.329680
