19
Iteration:  3905
 O         1.707308         2.748228         1.754986
 C         0.697371         1.857148         1.841306
 C         0.349526         1.184400         3.153309
 C        -0.377664         0.127266         2.289035
 C        -1.356850         0.829146         1.374296
 C        -0.519650         0.342597         0.100871
 C         0.653789         0.336477         1.084064
 O         1.844520        -0.223308         0.755380
 C        -0.706350         2.256568         1.470992
 H         2.179503         2.773575         2.587968
 H         1.182114         0.826981         3.723086
 H        -0.321953         1.767073         3.854487
 H        -0.690699        -0.912326         2.714126
 H        -2.424383         0.815334         1.569844
 H        -0.830867        -0.738035        -0.087436
 H        -0.589026         1.095535        -0.786647
 H         2.376338         0.444658         0.280523
 H        -0.871213         2.753773         0.519249
 H        -1.133855         2.956063         2.201175
