19
Iteration:  1653charge 0 multiplicity 1
 O         1.661395         2.746085         1.785055
 C         0.689528         1.799176         1.856663
 C         0.560082         0.901839         3.083721
 C        -0.423279         0.057448         2.246013
 C        -1.335837         0.915940         1.281965
 C        -0.479277         0.582303         0.056747
 C         0.590241         0.443419         1.068215
 O         1.829941        -0.110230         0.860320
 C        -0.763286         2.267085         1.692849
 H         1.803699         2.986073         0.857791
 H         1.316990         0.100773         3.278881
 H         0.216617         1.254789         4.074982
 H        -0.684746        -0.994145         2.397895
 H        -2.501777         0.685341         0.983672
 H        -0.609291        -0.453223        -0.293238
 H        -0.265129         1.321631        -0.683795
 H         1.600621        -1.102822         0.664718
 H        -1.018033         3.058100         0.860482
 H        -1.190558         2.764725         2.622000
