19
Iteration:  2609
 O         1.660815         2.881408         1.822145
 C         0.613190         1.842130         1.850569
 C         0.454933         1.122818         3.216530
 C        -0.244324         0.107695         2.307694
 C        -1.282072         0.770727         1.323916
 C        -0.482224         0.404155         0.057719
 C         0.587215         0.318169         1.084180
 O         1.765582        -0.272818         0.816123
 C        -0.796632         2.311060         1.413884
 H         2.431697         2.309180         2.039687
 H         1.393338         0.702460         3.529818
 H        -0.032710         1.650607         4.042550
 H        -0.553544        -0.809920         2.683504
 H        -2.373546         0.818183         1.456188
 H        -0.700543        -0.549891        -0.448722
 H        -0.585461         1.200060        -0.715043
 H         2.241311         0.092232         0.097635
 H        -0.937081         2.792842         0.460956
 H        -1.326255         2.926156         2.107152
