19
Iteration:  2990
 O         1.701061         2.750548         1.755336
 C         0.707529         1.804091         1.881603
 C         0.401159         1.087576         3.176553
 C        -0.318331         0.064532         2.373344
 C        -1.351509         0.858641         1.320203
 C        -0.516916         0.494621         0.010004
 C         0.645727         0.391855         1.029788
 O         1.791310        -0.275843         0.770816
 C        -0.760492         2.291179         1.588610
 H         1.427739         3.195236         0.912103
 H         1.326780         0.574154         3.365505
 H        -0.013815         1.669349         4.006618
 H        -0.558217        -0.943245         2.647957
 H        -2.506772         0.761723         1.188350
 H        -0.717632        -0.548167        -0.370488
 H        -0.511881         1.288802        -0.830592
 H         2.390204        -0.009541         1.569379
 H        -0.771561         2.890369         0.640901
 H        -1.043442         2.999257         2.406863
