19
Iteration:  2855
 O         1.769622         2.674289         1.574567
 C         0.613547         1.809213         1.794542
 C         0.390708         0.993205         3.209779
 C        -0.332460         0.063113         2.249207
 C        -1.325680         0.879087         1.396492
 C        -0.684008         0.484456         0.043431
 C         0.655349         0.418277         1.015017
 O         1.895930        -0.127568         1.011427
 C        -0.806433         2.279535         1.496228
 H         2.223117         2.778913         2.422556
 H         1.387243         0.498058         3.431040
 H        -0.018771         1.548961         4.058152
 H        -0.658664        -1.016690         2.289991
 H        -2.304440         0.758959         1.618097
 H        -0.829415        -0.627377        -0.271160
 H        -0.555975         1.178703        -0.869536
 H         2.521110         0.666394         1.112145
 H        -0.755928         2.862841         0.552237
 H        -1.206956         2.867835         2.333358
