19
Iteration:  3373
 O         1.708267         2.747135         1.646720
 C         0.634107         1.818324         1.871141
 C         0.538777         0.961403         3.193463
 C        -0.389821         0.076726         2.267872
 C        -1.367467         0.923905         1.343145
 C        -0.458371         0.437103         0.049349
 C         0.579559         0.380543         1.101743
 O         1.812139        -0.251259         0.914996
 C        -0.790282         2.369768         1.532698
 H         1.432037         3.469145         1.066006
 H         1.427674         0.326123         3.333186
 H         0.258513         1.371627         4.268730
 H        -0.760690        -0.966337         2.366386
 H        -2.352455         0.634597         1.173886
 H        -0.841367        -0.493324        -0.368113
 H        -0.453590         1.221946        -0.732786
 H         2.480166         0.294948         1.254982
 H        -0.642850         2.915593         0.589688
 H        -1.248151         3.062171         2.266680
