19
Iteration:   803charge 0 multiplicity 1
 O         1.789495         2.771367         2.018801
 C         0.715288         1.884974         1.920442
 C         0.363403         1.004052         3.120883
 C        -0.310453         0.021154         2.247164
 C        -1.303705         0.931536         1.338554
 C        -0.630290         0.375009         0.118114
 C         0.610304         0.408094         0.973814
 O         1.796152        -0.229475         0.520838
 C        -0.727269         2.294071         1.593517
 H         1.584615         3.542160         1.447853
 H         1.130692         0.450160         3.599937
 H        -0.029824         1.643221         3.914621
 H        -0.655003        -1.008721         2.497314
 H        -2.453017         0.866307         1.390601
 H        -0.822741        -0.682092        -0.027457
 H        -0.562287         0.883369        -0.792975
 H         2.452769         0.227903         1.061115
 H        -0.749555         2.899865         0.672550
 H        -1.283713         2.866369         2.364647
