19
Iteration:  1152charge 0 multiplicity 1
 O         1.708894         2.665253         1.687835
 C         0.680550         1.754793         1.907830
 C         0.418093         0.889875         3.174494
 C        -0.369976         0.009895         2.174225
 C        -1.346815         0.900727         1.325437
 C        -0.558964         0.596991         0.091567
 C         0.600751         0.465779         1.019058
 O         1.859800        -0.151663         0.811927
 C        -0.701323         2.317949         1.711893
 H         1.302164         3.313939         1.088119
 H         1.249636         0.380732         3.693053
 H        -0.177965         1.455481         3.996796
 H        -0.496546        -1.011098         2.240218
 H        -2.380141         0.710491         1.469428
 H        -0.701021        -0.443138        -0.245353
 H        -0.532391         1.218526        -0.854971
 H         2.534140         0.524452         0.887202
 H        -0.822169         2.990724         0.821978
 H        -1.154718         2.793696         2.568282
