19
Iteration:  2913charge 0 multiplicity 1
 O         1.786988         2.634545         1.751656
 C         0.612499         1.803853         1.898069
 C         0.358027         1.050235         3.232733
 C        -0.404930         0.049351         2.372694
 C        -1.365260         0.861241         1.345702
 C        -0.581903         0.418550         0.149879
 C         0.637644         0.343090         1.055359
 O         1.912921        -0.107792         0.670438
 C        -0.728288         2.316346         1.485426
 H         1.648986         3.488953         1.297585
 H         1.227610         0.666944         3.773621
 H        -0.260322         1.679280         3.932330
 H        -0.664574        -0.892276         2.809018
 H        -2.514793         0.743490         1.295212
 H        -0.844456        -0.568004        -0.379760
 H        -0.333528         1.099352        -0.750438
 H         2.424041         0.667283         0.712159
 H        -0.454605         2.809669         0.509306
 H        -1.172179         3.142448         2.085612
