19
Iteration:  1934
 O         1.621314         2.818424         1.776185
 C         0.654032         1.855766         1.935884
 C         0.551970         0.900475         3.185469
 C        -0.288896        -0.025715         2.214288
 C        -1.296672         0.865682         1.317091
 C        -0.537579         0.600988         0.019438
 C         0.552726         0.449553         1.009159
 O         1.814833        -0.186845         0.969374
 C        -0.767920         2.312074         1.522361
 H         1.732220         2.742521         0.808431
 H         1.523998         0.378517         3.162327
 H         0.277042         1.208035         4.191313
 H        -0.336883        -1.120681         2.373259
 H        -2.497745         0.758603         1.183739
 H        -0.725856        -0.303158        -0.415960
 H        -0.773806         1.407869        -0.633536
 H         1.747365        -0.997635         0.502160
 H        -0.737009         2.795272         0.539028
 H        -1.016294         2.919713         2.445251
