19
Iteration:    82charge 0 multiplicity 1
 O         1.717356         2.818841         1.861232
 C         0.687401         1.807620         1.898793
 C         0.440187         0.932668         3.176565
 C        -0.331417         0.033818         2.138480
 C        -1.353602         0.883989         1.342978
 C        -0.607004         0.529000         0.068570
 C         0.624000         0.413986         1.018731
 O         1.839437        -0.169654         0.745249
 C        -0.733212         2.206533         1.552654
 H         1.906901         3.001046         2.791065
 H         1.419932         0.444562         3.512775
 H        -0.063735         1.358331         4.109190
 H        -0.692234        -1.016505         2.453022
 H        -2.427765         0.845793         1.544448
 H        -0.825412        -0.521366        -0.277714
 H        -0.586018         1.341796        -0.699274
 H         2.212348         0.103074        -0.067230
 H        -0.747366         2.953628         0.698403
 H        -1.234838         2.801031         2.381425
