19
Iteration:   248charge 0 multiplicity 1
 O         1.663975         2.781553         1.810814
 C         0.678963         1.744193         2.037256
 C         0.458005         0.874146         3.169984
 C        -0.400878        -0.055768         2.131427
 C        -1.360599         0.879107         1.314242
 C        -0.503420         0.670491         0.037649
 C         0.645530         0.492444         1.050607
 O         1.785201        -0.224578         0.760069
 C        -0.678998         2.249836         1.618990
 H         1.327149         3.527641         1.315270
 H         1.439926         0.362169         3.396417
 H        -0.005129         1.285814         4.123247
 H        -0.618861        -1.164520         2.396694
 H        -2.499443         0.739705         1.292573
 H        -0.497791        -0.379229        -0.431915
 H        -0.433813         1.508342        -0.662549
 H         2.434288         0.473673         0.506259
 H        -0.677516         2.887249         0.723425
 H        -1.136336         2.976163         2.404835
