19
Iteration:    19charge 0 multiplicity 1
 O         1.872784         2.645159         1.794760
 C         0.603906         1.773448         1.899519
 C         0.454954         1.033826         3.146214
 C        -0.386054        -0.033779         2.337128
 C        -1.428354         0.757226         1.322168
 C        -0.560555         0.510655         0.003442
 C         0.550971         0.378302         1.052687
 O         1.827596         0.062328         0.666794
 C        -0.739836         2.294326         1.552122
 H         2.219471         2.626039         2.687975
 H         1.379954         0.468104         3.457486
 H         0.057863         1.473945         4.059789
 H        -0.585429        -1.125222         2.645029
 H        -2.670306         0.607159         1.456047
 H        -0.752981        -0.340503        -0.741164
 H        -0.407392         1.445378        -0.521949
 H         2.305397         0.474985         1.367486
 H        -0.860954         2.875427         0.645215
 H        -1.246571         2.996118         2.302347
