19
Iteration:   507charge 0 multiplicity 1
 O         1.792778         2.716818         1.875385
 C         0.731199         1.761462         1.957277
 C         0.417623         0.964454         3.238811
 C        -0.397586         0.094070         2.226754
 C        -1.334413         0.908084         1.294476
 C        -0.620285         0.266157         0.095313
 C         0.613465         0.504914         0.962604
 O         1.764217         0.022786         0.588032
 C        -0.718878         2.284256         1.559848
 H         2.438788         2.521454         2.575980
 H         1.279764         0.321387         3.603401
 H        -0.205563         1.269957         4.117131
 H        -0.651972        -1.041331         2.307827
 H        -2.448645         0.835720         1.578434
 H        -0.852055        -0.892028         0.058195
 H        -0.732427         0.722173        -0.995049
 H         2.475483         0.595739         0.761726
 H        -0.756573         2.954675         0.668726
 H        -1.168419         2.876969         2.392510
