19
Iteration:   364
 O         1.817554         2.613827         1.883888
 C         0.658331         1.843219         1.963247
 C         0.332414         0.993080         3.190860
 C        -0.374575         0.027992         2.161276
 C        -1.324209         0.909182         1.298430
 C        -0.588104         0.390343         0.090688
 C         0.620900         0.509164         1.008083
 O         1.860328         0.077834         0.540842
 C        -0.795059         2.288709         1.708162
 H         2.472319         1.906917         1.882393
 H         1.233599         0.392273         3.546334
 H        -0.282240         1.436880         3.967893
 H        -0.499433        -1.107902         2.285305
 H        -2.487394         0.744536         1.434350
 H        -0.659899        -0.723236         0.127519
 H        -0.527963         0.977277        -0.856392
 H         2.380823        -0.509247         1.096679
 H        -0.757569         2.947244         0.766231
 H        -1.489166         2.736459         2.411892
