19
Iteration:  2629
 O         1.615494         2.961178         1.888947
 C         0.676693         1.890670         1.853090
 C         0.435717         1.081161         3.087891
 C        -0.294083         0.031755         2.239275
 C        -1.360794         0.876417         1.367148
 C        -0.595194         0.370539         0.074506
 C         0.662679         0.418797         1.050959
 O         1.885900        -0.373403         0.889181
 C        -0.767621         2.299835         1.452664
 H         2.512325         2.681238         1.595744
 H         1.375247         0.614131         3.461242
 H        -0.037681         1.608803         3.913095
 H        -0.450759        -0.938498         2.529860
 H        -2.537107         0.744876         1.544968
 H        -0.966148        -0.628852        -0.146188
 H        -0.524518         0.942534        -0.827261
 H         2.097541        -0.465669        -0.117184
 H        -0.766531         2.828684         0.474707
 H        -1.231097         2.973796         2.141400
