19
Iteration:   504
 O         1.793210         2.723806         1.902164
 C         0.722652         1.767138         1.946310
 C         0.434331         0.979542         3.240410
 C        -0.399451         0.049323         2.219720
 C        -1.326186         0.903073         1.299609
 C        -0.649583         0.252347         0.061642
 C         0.627306         0.516772         0.973828
 O         1.746837         0.015292         0.596447
 C        -0.705157         2.302355         1.551762
 H         2.519516         2.475957         2.498292
 H         1.221752         0.312037         3.682804
 H        -0.163320         1.377347         4.041499
 H        -0.576543        -0.936528         2.279528
 H        -2.482761         0.752363         1.615010
 H        -0.841849        -0.836162         0.070986
 H        -0.778359         0.716069        -0.964439
 H         2.547210         0.643628         0.765942
 H        -0.780302         2.983135         0.621851
 H        -1.170340         2.837994         2.396878
