19
Iteration:   662charge 0 multiplicity 1
 O         1.807526         2.608738         1.954368
 C         0.653174         1.809652         1.926894
 C         0.372825         1.031385         3.214876
 C        -0.296488         0.121615         2.309890
 C        -1.333732         0.935107         1.340975
 C        -0.572012         0.323308         0.098366
 C         0.591836         0.444624         1.037354
 O         1.829240        -0.096307         0.432006
 C        -0.755172         2.353236         1.558716
 H         1.486681         3.521660         1.815888
 H         1.244391         0.724189         3.760461
 H        -0.374476         1.572616         3.896844
 H        -0.517210        -1.027156         2.421060
 H        -2.343711         0.813994         1.256770
 H        -0.670198        -0.814190         0.031561
 H        -0.525793         0.897023        -0.883590
 H         2.486827        -0.310499         1.070176
 H        -0.997319         2.867171         0.669250
 H        -1.311273         2.719330         2.442293
