19
Iteration:   252charge 0 multiplicity 1
 O         1.666055         2.799827         1.821662
 C         0.691159         1.757394         2.006467
 C         0.485832         0.860692         3.163103
 C        -0.427062        -0.060586         2.172382
 C        -1.387417         0.883703         1.294637
 C        -0.508067         0.644431         0.010716
 C         0.662813         0.492639         1.039245
 O         1.784943        -0.231216         0.769444
 C        -0.691138         2.263689         1.662808
 H         1.215070         3.451278         1.216285
 H         1.391326         0.356773         3.334823
 H         0.032969         1.278114         4.037200
 H        -0.549178        -1.010005         2.415962
 H        -2.404918         0.766979         1.182081
 H        -0.608470        -0.248778        -0.571324
 H        -0.346424         1.512539        -0.704255
 H         2.525642         0.398042         0.713738
 H        -0.740287         2.842142         0.728956
 H        -1.063439         2.834024         2.518450
