19
Iteration:  4399charge 0 multiplicity 1
 O         1.720347         2.632664         1.561031
 C         0.624384         1.841414         1.851340
 C         0.374426         1.187241         3.199621
 C        -0.408471         0.084490         2.408485
 C        -1.393483         0.885363         1.264823
 C        -0.503716         0.358723         0.146289
 C         0.651421         0.375151         1.132693
 O         1.935400        -0.156963         0.872097
 C        -0.764150         2.232843         1.429051
 H         1.689352         3.408756         2.162311
 H         1.173145         0.602756         3.726584
 H        -0.154538         1.797138         3.992831
 H        -0.693672        -0.911403         2.632479
 H        -2.524905         0.815238         1.411418
 H        -0.685061        -0.650408        -0.050398
 H        -0.309378         1.012974        -0.708926
 H         2.621821         0.354267         0.489388
 H        -0.935572         2.848263         0.468840
 H        -1.051058         2.909484         2.266654
