19
Iteration:  4773charge 0 multiplicity 1
 O         1.787483         2.618005         1.501195
 C         0.632013         1.869533         1.803148
 C         0.365375         1.075714         3.218637
 C        -0.343077         0.101326         2.390561
 C        -1.340891         0.855309         1.302364
 C        -0.505430         0.292994         0.123325
 C         0.592347         0.453255         1.104663
 O         1.910100        -0.109450         0.974756
 C        -0.914721         2.348562         1.391815
 H         2.221718         2.936815         2.303516
 H         1.366205         0.636966         3.505301
 H        -0.069856         1.605827         4.013401
 H        -0.665531        -1.036511         2.561248
 H        -2.460209         0.720157         1.384806
 H        -0.535243        -0.797015         0.129703
 H        -0.413215         0.901684        -0.837860
 H         2.529206         0.655737         1.221136
 H        -0.925520         2.782642         0.388781
 H        -1.451906         2.884286         2.206689
