19
Iteration:  4067charge 0 multiplicity 1
 O         1.687006         2.733571         1.736100
 C         0.649954         1.894178         1.863812
 C         0.480207         1.098195         3.210558
 C        -0.331626         0.123576         2.298658
 C        -1.314309         0.873388         1.309528
 C        -0.583685         0.265815         0.127503
 C         0.660454         0.483217         1.016223
 O         1.794209        -0.279155         0.866880
 C        -0.749633         2.324063         1.389599
 H         1.700609         3.344033         2.516543
 H         1.363888         0.597910         3.573042
 H        -0.056905         1.555248         4.094273
 H        -0.584542        -1.006094         2.340668
 H        -2.388985         0.632565         1.323939
 H        -0.779885        -0.890317         0.050836
 H        -0.578483         0.776304        -0.827394
 H         2.452226         0.403197         0.733463
 H        -0.703404         2.814912         0.399484
 H        -1.275998         3.138857         2.069111
