19
Iteration:  3722
 O         1.672670         2.821983         1.581875
 C         0.664270         1.764676         1.887530
 C         0.508315         1.116830         3.273140
 C        -0.312608         0.081778         2.287752
 C        -1.372220         0.876929         1.258820
 C        -0.476382         0.444485         0.040702
 C         0.583758         0.427061         1.111421
 O         1.781453        -0.287928         0.910001
 C        -0.809910         2.248551         1.508515
 H         2.151854         2.931491         2.454453
 H         1.280668         0.501935         3.683116
 H        -0.054621         1.584418         4.134848
 H        -0.398079        -1.074904         2.438919
 H        -2.424602         0.747671         1.394579
 H        -0.762556        -0.487273        -0.440068
 H        -0.241483         1.242656        -0.661567
 H         2.367597         0.283052         0.336290
 H        -0.715160         2.860770         0.511856
 H        -1.313596         2.729556         2.373907
