19
Iteration:  4992charge 0 multiplicity 1
 O         1.622396         2.937687         1.639763
 C         0.668534         1.844568         1.851260
 C         0.408488         1.124282         3.307799
 C        -0.315361         0.114887         2.302876
 C        -1.340171         0.860093         1.242467
 C        -0.529198         0.280553         0.084117
 C         0.592032         0.383575         1.100666
 O         1.867449        -0.308269         0.962609
 C        -0.739884         2.284346         1.411200
 H         2.436782         2.444319         1.855858
 H         1.360227         0.607350         3.579162
 H        -0.139055         1.755727         3.983647
 H        -0.498629        -0.910430         2.662837
 H        -2.441972         0.776158         1.316374
 H        -0.833640        -0.744366        -0.078004
 H        -0.600859         0.724311        -0.917004
 H         2.453265         0.196133         0.386209
 H        -0.618785         2.807209         0.505768
 H        -1.308368         2.959620         1.981803
