19
Iteration:  1275charge 0 multiplicity 1
 O         1.815948         2.600846         1.838245
 C         0.621820         1.874378         1.932238
 C         0.438175         1.059487         3.213625
 C        -0.298803         0.035311         2.320487
 C        -1.312481         0.848445         1.325435
 C        -0.536332         0.504243         0.069567
 C         0.569885         0.467114         1.081242
 O         1.847129        -0.115314         0.643238
 C        -0.869410         2.252152         1.514179
 H         1.941808         2.848439         2.766127
 H         1.549995         0.803946         3.490928
 H        -0.242066         1.561525         3.927425
 H        -0.539801        -1.093003         2.621717
 H        -2.479323         0.734554         1.315973
 H        -0.784173        -0.428940        -0.521077
 H        -0.244050         1.189872        -0.746464
 H         1.664775        -0.120607        -0.357525
 H        -0.798541         2.762400         0.565765
 H        -1.441416         2.868354         2.269171
