19
Iteration:  1478charge 0 multiplicity 1
 O         1.645318         2.755057         1.582110
 C         0.701192         1.798612         1.940955
 C         0.427840         0.920783         3.253534
 C        -0.355637         0.037413         2.217085
 C        -1.338205         0.893632         1.262653
 C        -0.443077         0.627916         0.009453
 C         0.591860         0.404951         1.068875
 O         1.861748        -0.221763         0.972564
 C        -0.799061         2.307201         1.722258
 H         1.561399         2.942645         0.641470
 H         1.250407         0.198092         3.520011
 H        -0.031966         1.404024         4.117060
 H        -0.563585        -0.981598         2.463603
 H        -2.521039         0.885493         1.091456
 H        -0.638528        -0.197473        -0.706076
 H        -0.271776         1.415033        -0.733511
 H         2.076730        -0.485068         0.028754
 H        -0.697159         3.034139         0.840658
 H        -1.111132         2.756324         2.691854
