19
Iteration:  4646
 O         1.587126         2.932324         1.670800
 C         0.657288         1.888693         1.856223
 C         0.456135         1.183827         3.174166
 C        -0.321755         0.127020         2.249458
 C        -1.382444         0.839230         1.221784
 C        -0.503122         0.239656         0.141690
 C         0.686905         0.424602         1.100478
 O         1.799327        -0.381634         0.986188
 C        -0.733709         2.287270         1.435133
 H         2.323488         2.793962         2.304651
 H         1.382172         0.690582         3.505807
 H         0.096459         1.718321         4.111556
 H        -0.325475        -0.908356         2.586542
 H        -2.492010         0.912567         1.480827
 H        -0.804967        -0.872651        -0.064161
 H        -0.502535         0.790731        -0.833253
 H         2.242831        -0.316028         0.141075
 H        -0.632474         2.863502         0.518196
 H        -1.205970         3.025370         2.105734
