19
Iteration:  3044charge 0 multiplicity 1
 O         1.810768         2.601985         1.816459
 C         0.679540         1.803248         1.844934
 C         0.505547         1.132249         3.167293
 C        -0.402250         0.121929         2.304813
 C        -1.406528         0.877204         1.270730
 C        -0.561618         0.310620         0.075221
 C         0.596161         0.392026         1.074349
 O         1.836001        -0.112089         0.806868
 C        -0.806560         2.271716         1.540783
 H         1.700866         3.436713         1.301094
 H         1.388220         0.696041         3.579333
 H         0.133283         1.809562         3.954579
 H        -0.755011        -0.876643         2.390736
 H        -2.544194         0.882168         1.428922
 H        -0.705799        -0.770970        -0.239668
 H        -0.653788         0.961095        -0.875151
 H         2.433186         0.697796         0.621425
 H        -0.705009         2.973822         0.665938
 H        -1.303691         2.822237         2.382108
