19
Iteration:  2130
 O         1.738694         2.906258         1.820187
 C         0.670122         1.870554         1.921494
 C         0.475125         0.934223         3.163909
 C        -0.348730         0.117409         2.212914
 C        -1.338921         0.955355         1.201243
 C        -0.531425         0.345176         0.035899
 C         0.655352         0.462100         1.033323
 O         1.787138        -0.373538         0.783106
 C        -0.779068         2.275098         1.626916
 H         1.354460         3.704397         1.428196
 H         1.300669         0.525176         3.634609
 H        -0.153583         1.223141         3.980797
 H        -0.442824        -0.878662         2.451200
 H        -2.440355         0.756370         1.464427
 H        -0.880113        -0.702346        -0.051230
 H        -0.479571         0.994387        -0.939691
 H         2.583607         0.050327         0.963114
 H        -1.041965         3.070391         0.994766
 H        -1.253922         2.602093         2.583336
