19
Iteration:    69charge 0 multiplicity 1
 O         1.760120         2.800747         1.843292
 C         0.689546         1.810674         1.953334
 C         0.351465         0.898191         3.203664
 C        -0.271170        -0.005281         2.210929
 C        -1.289252         0.933426         1.309255
 C        -0.631117         0.355286         0.018346
 C         0.602017         0.429680         0.993508
 O         1.827568        -0.129048         0.680943
 C        -0.717699         2.359000         1.639408
 H         2.056597         3.049962         2.744487
 H         1.158688         0.471717         3.792134
 H        -0.437539         1.377129         3.833877
 H        -0.667614        -1.002503         2.287820
 H        -2.254034         0.750247         1.428985
 H        -0.946673        -0.644977        -0.161795
 H        -0.690266         0.877250        -0.971366
 H         2.169054         0.586740         0.036674
 H        -0.810369         3.005762         0.705655
 H        -1.195071         2.800152         2.486132
