19
Iteration:  1165
 O         1.766102         2.646128         1.577324
 C         0.680999         1.752365         1.937052
 C         0.399785         0.967301         3.230282
 C        -0.302941         0.025020         2.126725
 C        -1.372057         0.920802         1.378171
 C        -0.486246         0.601430        -0.071650
 C         0.649127         0.485028         1.047682
 O         1.833113        -0.188996         0.830971
 C        -0.857337         2.246292         1.806227
 H         1.390247         3.412705         1.094291
 H         1.319090         0.364426         3.623614
 H        -0.181783         1.419633         4.082894
 H        -0.622023        -1.079629         2.455493
 H        -2.511313         0.843831         1.285930
 H        -0.853427        -0.362906        -0.522283
 H        -0.412769         1.477784        -0.759878
 H         2.520634         0.354197         1.318194
 H        -1.024861         3.080691         1.100820
 H        -1.156367         2.577710         2.841922
