19
Iteration:  1291charge 0 multiplicity 1
 O         1.720332         2.701120         1.687361
 C         0.662869         1.786495         1.887605
 C         0.357693         0.967339         3.238461
 C        -0.340928         0.014636         2.214068
 C        -1.374001         0.857243         1.355183
 C        -0.453961         0.539899         0.086366
 C         0.648645         0.428859         1.048582
 O         1.858701        -0.121848         0.760319
 C        -0.796843         2.339211         1.625108
 H         2.276703         2.889142         2.457200
 H         1.172915         0.432427         3.632991
 H        -0.108514         1.541868         4.047288
 H        -0.617642        -0.953403         2.479818
 H        -2.379675         0.625015         1.510455
 H        -0.688505        -0.380399        -0.459295
 H        -0.578032         1.271883        -0.780994
 H         1.870158        -0.383479        -0.237654
 H        -0.916300         3.013334         0.732636
 H        -1.149712         2.862533         2.502871
