19
Iteration:   849
 O         1.805184         2.615010         1.793492
 C         0.640009         1.825762         1.896162
 C         0.403693         0.881894         3.177744
 C        -0.351303         0.016551         2.139346
 C        -1.407519         0.912117         1.438835
 C        -0.546958         0.509185         0.059365
 C         0.614221         0.444676         1.017992
 O         1.891711        -0.026015         0.858781
 C        -0.788576         2.335677         1.591557
 H         1.825287         2.904411         0.866909
 H         1.391375         0.586549         3.537372
 H        -0.151142         1.165908         4.036132
 H        -0.514522        -1.038872         2.238242
 H        -2.410788         0.745633         1.443998
 H        -0.989419        -0.415742        -0.205084
 H        -0.557175         1.190728        -0.707252
 H         2.157107        -0.085413        -0.019252
 H        -0.860502         2.861877         0.692864
 H        -1.212540         2.942686         2.354966
