19
Iteration:  1770
 O         1.656005         2.780412         1.614221
 C         0.684264         1.794402         1.903512
 C         0.426342         0.911710         3.176481
 C        -0.292775        -0.019541         2.185468
 C        -1.336953         0.870890         1.366700
 C        -0.561766         0.620824        -0.014321
 C         0.578477         0.472822         0.991840
 O         1.876246        -0.117499         0.911812
 C        -0.749774         2.278396         1.714407
 H         2.594196         2.502563         1.665163
 H         1.408184         0.392877         3.549605
 H        -0.132266         1.344466         4.020507
 H        -0.614404        -1.039016         2.547475
 H        -2.516832         0.789724         1.498955
 H        -0.837762        -0.370357        -0.601138
 H        -0.468251         1.494426        -0.819587
 H         1.765981        -1.118997         0.772604
 H        -0.924240         2.969532         0.874182
 H        -1.178972         2.675858         2.698216
