19
Iteration:  1677
 O         1.713773         2.750849         1.867836
 C         0.636926         1.855653         2.014623
 C         0.409203         1.027876         3.274822
 C        -0.313401         0.028828         2.192622
 C        -1.326379         0.959512         1.313118
 C        -0.577117         0.420588         0.032017
 C         0.636228         0.384106         0.991985
 O         1.911504        -0.160540         0.636423
 C        -0.791854         2.355768         1.645801
 H         2.050181         2.498200         0.985043
 H         1.284545         0.568367         3.670108
 H        -0.158819         1.489743         4.115387
 H        -0.646724        -1.019334         2.203729
 H        -2.396844         0.675559         1.296324
 H        -0.773449        -0.603379        -0.215565
 H        -0.416915         1.024025        -0.848900
 H         1.767509        -1.045273         0.299414
 H        -0.833999         3.218250         0.846490
 H        -1.372218         2.762073         2.520603
