19
Iteration:  2813charge 0 multiplicity 1
 O         1.632483         2.850106         1.688136
 C         0.652471         1.884083         1.881056
 C         0.439974         1.030361         3.259962
 C        -0.349333         0.117445         2.257803
 C        -1.289429         0.928766         1.239842
 C        -0.413162         0.347029         0.058587
 C         0.607215         0.466890         1.092229
 O         1.821813        -0.298235         0.857068
 C        -0.810508         2.295098         1.582341
 H         2.461864         2.318656         1.531493
 H         1.310156         0.611412         3.800278
 H        -0.087063         1.479644         4.121687
 H        -0.666023        -0.846648         2.588358
 H        -2.317304         0.694668         1.182262
 H        -0.857406        -0.695687        -0.107614
 H        -0.373731         0.827054        -0.956557
 H         1.997722        -0.299018        -0.047145
 H        -0.930879         2.987814         0.706267
 H        -1.269759         2.655498         2.513838
