19
Iteration:  1999
 O         1.719227         2.683876         1.911125
 C         0.656955         1.758111         1.917773
 C         0.386033         1.005023         3.280033
 C        -0.346786         0.052559         2.296619
 C        -1.318184         0.908410         1.402655
 C        -0.549248         0.402285         0.059991
 C         0.611206         0.456646         1.043504
 O         1.849971        -0.065053         0.591449
 C        -0.714706         2.338432         1.432833
 H         1.613481         3.271539         1.149780
 H         1.317794         0.608245         3.685387
 H        -0.241053         1.482714         4.020974
 H        -0.496745        -1.032401         2.263933
 H        -2.439513         0.615666         1.243014
 H        -0.656080        -0.644675        -0.095655
 H        -0.632496         1.039351        -0.825981
 H         2.232674        -0.807807         1.213495
 H        -0.763164         2.814344         0.424215
 H        -1.157092         3.089715         2.196527
