19
Iteration:  3331
 O         1.783081         2.747806         1.805215
 C         0.657471         1.874884         1.864626
 C         0.373106         1.060961         3.199041
 C        -0.281443         0.077695         2.170161
 C        -1.314332         0.919486         1.339628
 C        -0.614355         0.335901         0.020096
 C         0.675471         0.377465         1.022165
 O         1.844937        -0.329071         0.886456
 C        -0.823763         2.435510         1.582559
 H         1.600416         3.415366         1.133908
 H         1.320023         0.704976         3.616225
 H        -0.288223         1.593171         3.955550
 H        -0.666272        -0.918359         2.491670
 H        -2.277516         0.737156         1.633437
 H        -0.972898        -0.647598        -0.102547
 H        -0.455279         0.836583        -0.897459
 H         2.442584         0.203558         0.229333
 H        -1.108409         2.734774         0.580295
 H        -1.117372         3.041390         2.435529
