19
Iteration:  2771charge 0 multiplicity 1
 O         1.632144         2.793381         1.880614
 C         0.672866         1.800672         1.826210
 C         0.406768         1.103622         3.135237
 C        -0.261374         0.064647         2.348124
 C        -1.298092         0.861974         1.377266
 C        -0.544051         0.436891         0.050738
 C         0.656682         0.321724         1.067059
 O         1.862079        -0.189458         0.840500
 C        -0.795573         2.341517         1.429900
 H         2.306857         2.669799         1.174066
 H         1.330291         0.759750         3.610946
 H        -0.255545         1.574715         3.889350
 H        -0.617570        -0.872597         2.562719
 H        -2.429172         0.910618         1.426147
 H        -0.807173        -0.512256        -0.369077
 H        -0.527792         1.102800        -0.761271
 H         1.801096        -0.952648         0.163099
 H        -0.934244         2.775965         0.406428
 H        -1.232902         3.102879         2.074102
