19
Iteration:   508
 O         1.792034         2.713909         1.865619
 C         0.731094         1.762315         1.959920
 C         0.411496         0.955419         3.237430
 C        -0.394914         0.107667         2.228773
 C        -1.341526         0.909219         1.296031
 C        -0.611195         0.272114         0.104095
 C         0.605084         0.500888         0.962199
 O         1.773699         0.021659         0.583414
 C        -0.723060         2.280424         1.562285
 H         2.410542         2.533968         2.605859
 H         1.288280         0.339790         3.567607
 H        -0.210856         1.247456         4.136991
 H        -0.674402        -1.063232         2.325474
 H        -2.402947         0.867588         1.544258
 H        -0.846102        -0.875065         0.052249
 H        -0.712867         0.710670        -0.970292
 H         2.465402         0.596640         0.766247
 H        -0.740665         2.933541         0.696820
 H        -1.168135         2.882035         2.385517
