19
Iteration:  4051charge 0 multiplicity 1
 O         1.667755         2.796707         1.758722
 C         0.603959         1.806719         1.771651
 C         0.439903         1.098225         3.085545
 C        -0.248659         0.051073         2.282180
 C        -1.373231         0.958321         1.353918
 C        -0.515956         0.318918         0.070034
 C         0.604725         0.303083         1.103620
 O         1.833383        -0.303612         0.911021
 C        -0.736942         2.376001         1.440386
 H         1.375908         3.402650         2.468496
 H         1.522360         0.867435         3.358963
 H        -0.073373         1.682212         3.822546
 H        -0.494122        -0.828390         2.732183
 H        -2.438328         0.910171         1.656169
 H        -0.816797        -0.699981        -0.000677
 H        -0.485543         1.071898        -0.780720
 H         2.594899         0.299651         0.574131
 H        -0.742282         2.928836         0.489321
 H        -1.162858         2.906682         2.187262
