19
Iteration:   645charge 0 multiplicity 1
 O         1.849399         2.675165         1.984004
 C         0.614818         1.894102         1.948443
 C         0.329253         1.086870         3.207996
 C        -0.237952        -0.006678         2.182086
 C        -1.305576         0.859240         1.327765
 C        -0.549495         0.375776         0.116454
 C         0.693422         0.469450         0.967875
 O         1.716989        -0.201027         0.495000
 C        -0.825022         2.334588         1.588777
 H         1.754415         3.621405         1.764425
 H         1.229962         0.675878         3.750609
 H        -0.290625         1.496592         3.958498
 H        -0.538329        -0.956082         2.412854
 H        -2.422265         0.662463         1.722892
 H        -0.806267        -0.650029        -0.007530
 H        -0.629368         0.841821        -0.868103
 H         2.547455        -0.118505         0.999083
 H        -0.754211         3.047431         0.694076
 H        -1.198978         3.017476         2.343264
