19
Iteration:  3764
 O         1.730955         2.744401         1.797617
 C         0.657398         1.866435         1.787157
 C         0.361692         1.050465         3.224717
 C        -0.332250         0.158679         2.210138
 C        -1.432759         0.907608         1.311043
 C        -0.663427         0.198119         0.147038
 C         0.672045         0.448855         0.992415
 O         1.936037        -0.165840         0.878920
 C        -0.728962         2.318281         1.492262
 H         2.552340         2.236019         1.883593
 H         1.291896         0.737618         3.662253
 H        -0.107331         1.758268         3.954954
 H        -0.696006        -0.939385         2.343356
 H        -2.510295         0.815625         1.309147
 H        -0.880279        -0.838647         0.216671
 H        -0.743939         0.618619        -0.795635
 H         2.507548         0.494854         0.288634
 H        -0.847139         2.917395         0.586124
 H        -1.058995         2.953955         2.266324
