19
Iteration:    66
 O         1.755602         2.773498         1.837572
 C         0.682841         1.832866         1.959348
 C         0.329875         0.900294         3.220160
 C        -0.275006        -0.022095         2.190941
 C        -1.284101         0.918416         1.323864
 C        -0.625282         0.326965         0.007305
 C         0.614554         0.431975         0.980761
 O         1.831373        -0.122153         0.659955
 C        -0.716270         2.404655         1.653253
 H         2.088751         3.016698         2.731897
 H         1.099781         0.507405         3.829668
 H        -0.378102         1.408312         3.850105
 H        -0.541389        -1.035701         2.364748
 H        -2.419386         0.792122         1.341198
 H        -0.934968        -0.707623        -0.044258
 H        -0.664692         0.819503        -0.958159
 H         2.205078         0.636459         0.118171
 H        -0.768487         3.095665         0.824391
 H        -1.206957         2.917519         2.463147
