19
Iteration:  3169
 O         1.786988         2.785537         1.852962
 C         0.693871         1.823615         1.812712
 C         0.413074         1.023100         3.129753
 C        -0.280589         0.110183         2.176673
 C        -1.374070         0.908325         1.328284
 C        -0.716258         0.319147         0.110043
 C         0.600291         0.460246         1.083960
 O         1.865171        -0.233010         0.892214
 C        -0.717462         2.302003         1.517875
 H         1.786966         3.374784         1.058758
 H         1.211157         0.372953         3.541027
 H        -0.255329         1.519969         3.794656
 H        -0.431523        -0.990211         2.350131
 H        -2.358143         0.667171         1.535145
 H        -0.790397        -0.763835         0.028213
 H        -0.812934         0.797276        -0.984698
 H         2.429069         0.637079         0.678738
 H        -0.732192         2.677261         0.504123
 H        -1.317701         2.896858         2.184965
