19
Iteration:  4940
 O         1.786033         2.648212         1.544692
 C         0.667487         1.864120         1.873850
 C         0.373866         1.139647         3.245471
 C        -0.369132         0.160266         2.280534
 C        -1.344295         0.868168         1.275740
 C        -0.541426         0.215476         0.120965
 C         0.581259         0.374139         1.145586
 O         1.928014        -0.111271         0.947347
 C        -0.816214         2.290977         1.413867
 H         2.009730         3.155847         2.354121
 H         1.228305         0.729799         3.587002
 H        -0.287353         1.652566         3.860380
 H        -0.696499        -0.770167         2.585762
 H        -2.441465         0.759993         1.326232
 H        -0.782965        -0.815346        -0.086319
 H        -0.484794         0.853910        -0.869468
 H         2.423025         0.643939         0.642529
 H        -1.038612         2.994602         0.622685
 H        -1.380666         2.634646         2.342225
