19
Iteration:  1649charge 0 multiplicity 1
 O         1.666504         2.743050         1.777780
 C         0.695821         1.785884         1.863886
 C         0.577733         0.912814         3.080234
 C        -0.447659         0.041198         2.208053
 C        -1.355342         0.908541         1.317269
 C        -0.510164         0.603225         0.056302
 C         0.596519         0.445570         1.046815
 O         1.828515        -0.118481         0.908402
 C        -0.766103         2.266523         1.674309
 H         1.697161         3.017046         0.834241
 H         1.349108         0.113564         3.221114
 H         0.305966         1.336783         4.051344
 H        -0.627601        -1.036080         2.281112
 H        -2.338960         0.660825         1.042814
 H        -0.607769        -0.420806        -0.372203
 H        -0.233791         1.440719        -0.650108
 H         1.734559        -1.007643         0.700415
 H        -0.929013         2.979700         0.946597
 H        -1.175287         2.757456         2.528716
