19
Iteration:  3429charge 0 multiplicity 1
 O         1.839280         2.555979         1.831397
 C         0.630246         1.878505         1.897058
 C         0.389235         1.106567         3.161700
 C        -0.326190         0.088767         2.356930
 C        -1.342061         0.893424         1.340676
 C        -0.595514         0.321895         0.078387
 C         0.616268         0.441821         1.158608
 O         1.815482        -0.072322         0.708939
 C        -0.774957         2.267352         1.412402
 H         1.916715         2.983648         0.961886
 H         1.372600         0.560478         3.260498
 H        -0.056215         1.511435         4.189400
 H        -0.862146        -0.782805         2.751442
 H        -2.371850         0.827133         1.389374
 H        -0.788409        -0.673223        -0.279768
 H        -0.670180         1.044072        -0.771397
 H         2.560245         0.567604         0.902872
 H        -0.834929         2.774141         0.442781
 H        -1.318066         2.853824         2.158619
