19
Iteration:  4122
 O         1.699740         2.454552         1.519303
 C         0.550618         1.777047         1.864858
 C         0.376424         1.159529         3.215852
 C        -0.290431         0.092230         2.314692
 C        -1.341989         0.916882         1.294613
 C        -0.586721         0.392037         0.037558
 C         0.647967         0.402425         1.109495
 O         1.994635        -0.048646         0.955071
 C        -0.841243         2.334250         1.502905
 H         2.170986         2.704703         2.316966
 H         1.288229         0.670880         3.502638
 H        -0.245780         1.618123         4.074505
 H        -0.798362        -0.946405         2.644329
 H        -2.425689         0.780234         1.371370
 H        -0.694335        -0.722730        -0.219788
 H        -0.552670         1.294244        -0.557400
 H         2.513480         0.741759         0.840585
 H        -0.701057         2.805622         0.502899
 H        -1.253905         3.047594         2.360591
