19
Iteration:  2827charge 0 multiplicity 1
 O         1.604420         2.785803         1.643374
 C         0.611031         1.821730         1.890156
 C         0.442587         1.055008         3.142715
 C        -0.343238         0.024482         2.276079
 C        -1.334232         0.929206         1.266533
 C        -0.518457         0.421124         0.073820
 C         0.648578         0.339421         1.124342
 O         1.862759        -0.218137         0.948020
 C        -0.753687         2.350592         1.547636
 H         2.472032         2.472914         1.925575
 H         1.398821         0.559922         3.184591
 H         0.041614         1.614676         4.016293
 H        -0.621002        -1.014350         2.477595
 H        -2.513507         0.857273         1.381133
 H        -0.624446        -0.598465        -0.222363
 H        -0.331897         1.111919        -0.705113
 H         2.154654         0.049930         0.007838
 H        -0.667539         3.092964         0.732755
 H        -1.236996         2.862469         2.403619
