19
Iteration:  4015
 O         1.723356         2.726163         1.536490
 C         0.670510         1.859605         1.912123
 C         0.412690         1.082050         3.231369
 C        -0.283420         0.092057         2.258438
 C        -1.405825         0.891727         1.278368
 C        -0.448565         0.422032         0.053101
 C         0.672244         0.502037         1.097018
 O         1.781262        -0.327093         0.962100
 C        -0.832614         2.265814         1.543926
 H         1.544000         3.597642         1.964725
 H         1.290831         0.618202         3.588662
 H        -0.125381         1.491049         4.122743
 H        -0.476970        -1.033923         2.494724
 H        -2.397062         0.642935         1.595656
 H        -0.522151        -0.616867        -0.320725
 H        -0.482169         0.895453        -0.972663
 H         2.415919         0.291449         0.479015
 H        -0.763440         2.983656         0.707247
 H        -1.392647         2.745301         2.383371
