19
Iteration:  4697charge 0 multiplicity 1
 O         1.616436         2.917117         1.676767
 C         0.688674         1.884403         1.843255
 C         0.430476         1.188354         3.229382
 C        -0.281998         0.140843         2.344993
 C        -1.311500         0.806122         1.265747
 C        -0.466911         0.279112         0.045436
 C         0.672940         0.455403         1.126326
 O         1.781284        -0.377099         0.966757
 C        -0.823311         2.242320         1.368012
 H         2.529069         2.588630         1.789514
 H         1.282131         0.745687         3.799607
 H        -0.086492         1.760346         3.977903
 H        -0.685997        -0.848962         2.758122
 H        -2.402144         0.776299         1.394589
 H        -0.731398        -0.713584        -0.104976
 H        -0.578508         0.899364        -0.844335
 H         2.177527        -0.137786         0.154615
 H        -0.842736         2.882525         0.452408
 H        -1.343558         2.840292         2.166305
