19
Iteration:  3554
 O         1.734512         2.745034         1.719464
 C         0.671456         1.786521         1.816378
 C         0.467040         0.995341         3.093046
 C        -0.379565         0.025912         2.168220
 C        -1.286988         0.959762         1.327574
 C        -0.570717         0.381029         0.060366
 C         0.640908         0.476282         1.035961
 O         1.839415        -0.259878         0.984713
 C        -0.789128         2.360036         1.611840
 H         1.301580         3.500166         1.261534
 H         1.316564         0.373946         3.584285
 H        -0.023316         1.511811         3.935742
 H        -0.442437        -0.977254         2.528908
 H        -2.453853         0.930222         1.462442
 H        -0.919693        -0.657112         0.033229
 H        -0.776342         0.855968        -0.860867
 H         2.520913         0.329243         0.684920
 H        -0.915995         3.069460         0.748922
 H        -1.235196         2.866305         2.509863
