19
Iteration:  3321charge 0 multiplicity 1
 O         1.812527         2.730510         1.808566
 C         0.605589         1.933789         1.906258
 C         0.313783         1.058636         3.120638
 C        -0.230351         0.039395         2.245474
 C        -1.351714         0.949173         1.417140
 C        -0.580641         0.392754         0.078970
 C         0.643916         0.381455         0.994333
 O         1.882894        -0.342363         0.839360
 C        -0.801938         2.376743         1.511002
 H         1.756701         3.295689         1.030661
 H         1.114513         0.783451         3.788002
 H        -0.475473         1.426138         3.754114
 H        -0.452853        -1.017969         2.486977
 H        -2.381580         0.908038         1.592043
 H        -0.766175        -0.644560         0.025957
 H        -0.627567         0.728207        -0.925846
 H         2.431308         0.137129         0.155406
 H        -0.891208         3.118754         0.676044
 H        -1.424563         2.855315         2.286826
