19
Iteration:  4272
 O         1.814035         2.502865         1.496759
 C         0.683219         1.826120         1.874968
 C         0.415761         1.092429         3.237836
 C        -0.376982         0.090896         2.320247
 C        -1.389080         0.826618         1.247691
 C        -0.592530         0.374083         0.064718
 C         0.560039         0.444880         1.138237
 O         1.877707         0.008220         1.019674
 C        -0.802698         2.288881         1.443800
 H         2.041067         3.050193         2.253459
 H         1.318101         0.562341         3.566851
 H         0.048616         1.788391         3.976496
 H        -0.552674        -1.017304         2.630883
 H        -2.510987         0.639342         1.366657
 H        -0.704230        -0.626423        -0.435923
 H        -0.564750         0.977674        -0.821407
 H         2.498667         0.768866         0.942506
 H        -0.830460         2.882590         0.572219
 H        -1.199348         2.853781         2.265992
