19
Iteration:  4943
 O         1.769512         2.651054         1.571649
 C         0.655317         1.835959         1.855843
 C         0.375512         1.160154         3.220371
 C        -0.350293         0.169627         2.276417
 C        -1.337103         0.871832         1.287775
 C        -0.554341         0.210350         0.109280
 C         0.559654         0.386695         1.139188
 O         1.928932        -0.111250         0.953948
 C        -0.813594         2.281497         1.423042
 H         2.131691         3.055231         2.387529
 H         1.362340         0.757862         3.600572
 H        -0.329639         1.751304         3.896798
 H        -0.592417        -0.828692         2.573483
 H        -2.405976         0.761507         1.218447
 H        -0.869184        -0.819936        -0.156253
 H        -0.473084         0.767276        -0.773073
 H         2.632134         0.549058         0.647078
 H        -1.121654         3.019815         0.611001
 H        -1.342503         2.741333         2.352363
