19
Iteration:  2071
 O         1.749916         2.722150         1.730111
 C         0.642827         1.825056         1.904993
 C         0.440350         0.921680         3.193939
 C        -0.376582        -0.000815         2.174669
 C        -1.327543         0.885572         1.314614
 C        -0.502697         0.539099         0.008378
 C         0.600315         0.448064         1.065520
 O         1.860245        -0.162053         0.946781
 C        -0.809701         2.331836         1.636347
 H         1.640566         3.200170         0.886447
 H         1.391841         0.291939         3.418267
 H        -0.118962         1.436489         3.991551
 H        -0.545404        -1.106817         2.406953
 H        -2.357208         0.723735         1.478160
 H        -0.919047        -0.468462        -0.388707
 H        -0.436016         1.225390        -0.862134
 H         2.277975        -0.032113         0.013404
 H        -0.889854         2.900296         0.669840
 H        -1.221596         2.852365         2.502932
