19
Iteration:  1068
 O         1.707506         2.768947         1.867727
 C         0.668583         1.830692         1.994467
 C         0.379116         0.966788         3.239886
 C        -0.284336         0.002337         2.245090
 C        -1.300047         0.931736         1.320896
 C        -0.583354         0.536833         0.062323
 C         0.654975         0.387761         0.998098
 O         1.800560        -0.287456         0.598205
 C        -0.714213         2.341270         1.614045
 H         1.376655         3.274708         1.098583
 H         1.332171         0.508539         3.562517
 H        -0.269228         1.349783         3.955136
 H        -0.705290        -1.083008         2.481709
 H        -2.406691         0.878299         1.404661
 H        -0.704981        -0.416745        -0.464179
 H        -0.467257         1.321852        -0.657795
 H         2.665111         0.201545         0.881525
 H        -0.937812         2.815485         0.671762
 H        -1.271943         2.861108         2.430099
