19
Iteration:  2367
 O         1.825063         2.500904         1.666832
 C         0.632789         1.797963         1.767379
 C         0.403863         1.039185         3.094733
 C        -0.450225         0.110560         2.268361
 C        -1.338800         0.944451         1.309775
 C        -0.493238         0.325534         0.074074
 C         0.624212         0.372366         1.104207
 O         1.943611         0.015671         0.891888
 C        -0.875276         2.348327         1.670231
 H         1.703805         3.280460         1.098840
 H         1.283990         0.435818         3.475020
 H        -0.040073         1.697660         3.856406
 H        -0.768414        -0.851302         2.438123
 H        -2.424796         0.692042         1.328891
 H        -0.870462        -0.742667        -0.142002
 H        -0.564607         0.901299        -0.934168
 H         2.380117         0.669138         1.558047
 H        -1.058217         3.108291         0.841665
 H        -1.385187         2.667340         2.587275
