19
Iteration:  1064
 O         1.688625         2.769977         1.828230
 C         0.657622         1.816353         1.989633
 C         0.407991         0.930676         3.240835
 C        -0.319753        -0.013364         2.279108
 C        -1.301658         0.952539         1.311037
 C        -0.546881         0.573745         0.059872
 C         0.628738         0.380006         1.016130
 O         1.808537        -0.267934         0.616904
 C        -0.722771         2.305800         1.602017
 H         1.409174         3.283648         1.052530
 H         1.323590         0.473138         3.510892
 H        -0.214516         1.355351         4.091322
 H        -0.571613        -0.956645         2.479633
 H        -2.334296         0.849675         1.416150
 H        -0.675326        -0.342447        -0.509542
 H        -0.428312         1.332663        -0.771792
 H         2.548102         0.150734         0.966647
 H        -0.917989         3.016843         0.735102
 H        -1.147205         2.838007         2.439283
