19
Iteration:  2311charge 0 multiplicity 1
 O         1.629171         2.886486         1.981543
 C         0.669921         1.851640         1.853485
 C         0.403289         1.097891         3.120692
 C        -0.299953         0.092429         2.364443
 C        -1.361959         0.867129         1.373011
 C        -0.495615         0.373018         0.044125
 C         0.654294         0.333932         1.073368
 O         1.819596        -0.398416         0.733402
 C        -0.714462         2.346049         1.420840
 H         1.468314         3.334364         1.124177
 H         1.497940         0.969523         3.410589
 H        -0.000643         1.438917         4.067102
 H        -0.509751        -0.979649         2.630329
 H        -2.424966         0.722542         1.414633
 H        -0.798181        -0.588307        -0.464682
 H        -0.550677         1.242790        -0.730196
 H         2.252836        -0.014709        -0.022129
 H        -0.755055         2.908461         0.427421
 H        -1.042377         2.994186         2.233325
