19
Iteration:  3869
 O         1.600791         2.830563         1.675804
 C         0.638190         1.926778         1.940639
 C         0.525274         1.032981         3.172591
 C        -0.357730         0.141878         2.186334
 C        -1.321639         0.936716         1.309051
 C        -0.567091         0.370250         0.081125
 C         0.664138         0.404455         1.020022
 O         1.848804        -0.338687         1.005364
 C        -0.797997         2.294059         1.501396
 H         2.473974         2.478875         1.838955
 H         1.513897         0.501088         3.275101
 H         0.081911         1.201192         4.118169
 H        -0.614960        -0.841860         2.363292
 H        -2.407118         0.814830         1.401349
 H        -0.859890        -0.648871        -0.230340
 H        -0.639601         0.897337        -0.912260
 H         2.510638         0.119338         0.451622
 H        -0.699982         2.762987         0.515186
 H        -1.372201         2.954595         2.268039
