19
Iteration:  4299
 O         1.721809         2.581184         1.417990
 C         0.612538         1.892053         1.876745
 C         0.331942         1.029579         3.199050
 C        -0.303455         0.046054         2.257056
 C        -1.323695         0.922951         1.344637
 C        -0.456262         0.412066         0.137439
 C         0.636508         0.415538         1.117364
 O         1.905035        -0.178942         1.009197
 C        -0.896313         2.370619         1.504748
 H         2.170710         2.946687         2.185185
 H         1.278768         0.738942         3.708488
 H        -0.306310         1.566904         3.992148
 H        -0.644371        -0.915875         2.440223
 H        -2.331543         0.618521         1.386294
 H        -0.765116        -0.612911        -0.135041
 H        -0.386659         1.066705        -0.826225
 H         2.651535         0.469021         0.785061
 H        -1.030471         3.000202         0.553973
 H        -1.296082         3.001675         2.338950
