19
Iteration:  1469
 O         1.735268         2.726276         1.606617
 C         0.633322         1.800809         1.932693
 C         0.388895         0.926183         3.231198
 C        -0.356219         0.072573         2.163391
 C        -1.306352         0.871128         1.252807
 C        -0.551740         0.580037        -0.037905
 C         0.700822         0.456206         1.031283
 O         1.878910        -0.236564         0.988665
 C        -0.785709         2.325162         1.799293
 H         1.506752         3.219640         0.811789
 H         1.302410         0.491820         3.758541
 H        -0.113390         1.490900         4.019575
 H        -0.621951        -0.974886         2.389727
 H        -2.456704         0.552565         1.134664
 H        -0.807112        -0.470784        -0.454860
 H        -0.437203         1.524626        -0.744159
 H         1.940708        -0.579368         0.033121
 H        -1.001046         2.996947         0.944542
 H        -1.221825         2.916337         2.633842
