19
Iteration:  2734
 O         1.785152         2.680775         1.711273
 C         0.700004         1.841583         1.882663
 C         0.334396         0.967504         3.175790
 C        -0.426309         0.079784         2.242622
 C        -1.313391         0.946129         1.297911
 C        -0.540945         0.268847         0.099417
 C         0.578179         0.521155         1.069591
 O         1.915767         0.030196         0.857168
 C        -0.813098         2.332595         1.543636
 H         2.298250         2.353222         0.927470
 H         1.174233         0.266916         3.415603
 H        -0.070390         1.462642         4.061835
 H        -0.652109        -0.985530         2.664370
 H        -2.334200         0.798706         1.317185
 H        -0.524938        -0.870069         0.200224
 H        -0.697950         0.730842        -0.936406
 H         2.217163        -0.843883         1.101814
 H        -0.805108         2.874962         0.576226
 H        -1.458126         2.755643         2.352939
