19
Iteration:  3348charge 0 multiplicity 1
 O         1.703832         2.752442         1.786776
 C         0.656048         1.810558         1.838849
 C         0.518929         1.055338         3.112445
 C        -0.369075         0.118581         2.303773
 C        -1.354970         0.895640         1.286187
 C        -0.545662         0.417048         0.080467
 C         0.601243         0.411614         1.042872
 O         1.793253        -0.291888         0.935981
 C        -0.711702         2.283417         1.497323
 H         1.492573         3.544892         1.285350
 H         1.400502         0.479354         3.416326
 H         0.132575         1.592201         4.006212
 H        -0.556448        -0.936968         2.468655
 H        -2.527623         0.834614         1.231646
 H        -0.756908        -0.658270        -0.273240
 H        -0.634171         1.136685        -0.823356
 H         2.437295         0.355354         0.518632
 H        -0.635445         3.118005         0.782038
 H        -1.258521         2.640263         2.403490
