19
Iteration:  3146
 O         1.746672         2.714067         1.833704
 C         0.601537         1.838295         1.814747
 C         0.468460         1.085456         3.192842
 C        -0.292418         0.043935         2.302052
 C        -1.309136         0.860666         1.343030
 C        -0.607560         0.379891         0.066889
 C         0.640774         0.491345         0.963355
 O         1.822587        -0.287144         0.865654
 C        -0.767523         2.343424         1.479780
 H         1.556507         3.391405         1.179824
 H         1.500890         0.876950         3.454175
 H        -0.136823         1.483040         3.963877
 H        -0.702620        -0.963118         2.630696
 H        -2.363236         0.842234         1.463463
 H        -0.796246        -0.617242        -0.314159
 H        -0.578979         1.183575        -0.820997
 H         2.599798         0.261899         1.031090
 H        -1.060584         2.753871         0.512750
 H        -1.347513         2.821825         2.277150
