19
Iteration:   204
 O         1.864822         2.571336         1.934339
 C         0.617690         1.848086         1.876184
 C         0.347778         1.029467         3.090855
 C        -0.350959         0.059965         2.179900
 C        -1.368321         0.882268         1.295263
 C        -0.610120         0.427720         0.055880
 C         0.681383         0.460166         1.009813
 O         1.916433        -0.034024         0.705144
 C        -0.797494         2.276366         1.687588
 H         1.815801         3.014257         2.789956
 H         1.276099         0.461384         3.498812
 H        -0.266993         1.635705         3.846679
 H        -0.598985        -1.111449         2.133093
 H        -2.529140         0.674015         1.452843
 H        -0.876781        -0.729917        -0.061697
 H        -0.696938         0.947994        -0.931490
 H         2.054902         0.334927        -0.182777
 H        -0.813985         3.017300         0.857233
 H        -1.505710         2.740714         2.534958
