19
Iteration:   535
 O         1.728655         2.556264         1.726344
 C         0.647054         1.744353         1.929612
 C         0.444810         0.956892         3.195739
 C        -0.398695        -0.069931         2.280034
 C        -1.335265         0.921074         1.355053
 C        -0.548119         0.535928         0.099921
 C         0.637784         0.390426         1.035714
 O         1.908220        -0.043216         0.644357
 C        -0.837197         2.411434         1.590066
 H         1.782387         3.258421         2.411474
 H         1.413154         0.519787         3.481786
 H        -0.057667         1.379339         4.042969
 H        -0.710638        -1.047852         2.425625
 H        -2.449318         0.794123         1.553121
 H        -0.900425        -0.311024        -0.375370
 H        -0.528126         1.253076        -0.658438
 H         2.570673         0.582078         0.775935
 H        -0.889656         3.037126         0.658788
 H        -1.157694         3.023490         2.424732
