19
Iteration:  2024charge 0 multiplicity 1
 O         1.837922         2.611722         1.978301
 C         0.631309         1.866942         1.928422
 C         0.390374         1.058806         3.142108
 C        -0.346077         0.020513         2.267969
 C        -1.350140         0.904022         1.406511
 C        -0.607525         0.311658         0.084351
 C         0.575670         0.377044         1.008619
 O         1.861716        -0.026645         0.615728
 C        -0.743203         2.301314         1.454663
 H         1.852113         3.359423         1.366050
 H         1.319147         0.639911         3.437700
 H        -0.232626         1.511390         3.972890
 H        -0.804971        -0.879834         2.616628
 H        -2.466163         0.754591         1.347696
 H        -0.754681        -0.653882        -0.285787
 H        -0.623050         1.053229        -0.695090
 H         2.509302         0.445266         1.224900
 H        -0.743421         2.663906         0.383108
 H        -1.264699         3.045533         2.133240
