19
Iteration:  1638
 O         1.707436         2.736894         1.741804
 C         0.653840         1.745356         1.891999
 C         0.570061         0.884377         3.136483
 C        -0.384532         0.000813         2.113857
 C        -1.408131         0.905903         1.345954
 C        -0.542784         0.638321        -0.009960
 C         0.593700         0.451958         1.019541
 O         1.880146        -0.142936         1.019331
 C        -0.791821         2.293812         1.645474
 H         1.508738         3.204829         0.909635
 H         1.597705         0.470675         3.200530
 H         0.358230         1.456096         4.041526
 H        -0.592421        -1.065311         2.264778
 H        -2.441841         0.815369         1.563657
 H        -0.944193        -0.151551        -0.665786
 H        -0.587434         1.520473        -0.712161
 H         1.897789        -1.046043         0.648003
 H        -0.735965         2.914702         0.831725
 H        -1.158299         2.723171         2.545912
