19
Iteration:   358charge 0 multiplicity 1
 O         1.800932         2.614189         1.906944
 C         0.636842         1.841063         1.957544
 C         0.319630         0.950279         3.195213
 C        -0.365172         0.046951         2.154384
 C        -1.292698         0.965717         1.321810
 C        -0.559890         0.342075         0.113350
 C         0.627852         0.473745         1.075110
 O         1.884754         0.086540         0.466882
 C        -0.818350         2.306810         1.669397
 H         2.513792         1.931745         1.816394
 H         1.177055         0.612077         3.757736
 H        -0.278475         1.441648         4.004016
 H        -0.749008        -1.045510         2.282377
 H        -2.294503         0.749287         1.288640
 H        -0.885330        -0.711005         0.043260
 H        -0.658669         0.816148        -0.854001
 H         2.382389        -0.500670         1.004759
 H        -0.741481         2.982962         0.867354
 H        -1.427185         2.798232         2.472485
