19
Iteration:  2873charge 0 multiplicity 1
 O         1.828920         2.551444         1.590596
 C         0.655288         1.882803         1.905574
 C         0.430178         1.047708         3.137839
 C        -0.316656         0.044191         2.238881
 C        -1.432137         0.853285         1.282524
 C        -0.568249         0.326181         0.073733
 C         0.557226         0.513869         1.080726
 O         1.874474        -0.077897         0.899927
 C        -0.763129         2.361170         1.592937
 H         1.971793         3.180129         2.323314
 H         1.275874         0.523331         3.569052
 H        -0.345987         1.490566         3.773127
 H        -0.539308        -1.050345         2.509529
 H        -2.576346         0.671848         1.251923
 H        -0.857594        -0.665574        -0.026278
 H        -0.710770         0.937950        -0.787373
 H         2.628567         0.544420         1.171502
 H        -0.960764         2.951483         0.719156
 H        -1.298476         2.875055         2.407175
