19
Iteration:   831
 O         1.799094         2.535833         1.963124
 C         0.632299         1.850352         1.889400
 C         0.433219         1.017496         3.137523
 C        -0.250331         0.016622         2.269934
 C        -1.351603         0.892005         1.328225
 C        -0.628803         0.457041         0.047889
 C         0.623320         0.493868         1.054440
 O         1.850713        -0.118459         0.721263
 C        -0.837007         2.335337         1.531728
 H         1.857709         3.203877         1.260921
 H         1.436633         0.548641         3.413224
 H         0.076407         1.597601         4.031421
 H        -0.650130        -0.979764         2.522450
 H        -2.455231         0.705251         1.446865
 H        -0.704844        -0.605694        -0.300595
 H        -0.805137         1.259356        -0.807598
 H         2.132787         0.415604         0.009331
 H        -0.830988         2.888736         0.546228
 H        -1.317569         2.917546         2.344059
