19
Iteration:  1984charge 0 multiplicity 1
 O         1.708825         2.749215         1.865045
 C         0.622884         1.904559         1.960008
 C         0.375011         1.001327         3.210883
 C        -0.286815         0.057859         2.180448
 C        -1.322111         0.923775         1.269054
 C        -0.520940         0.360161         0.080849
 C         0.669250         0.394600         1.030368
 O         1.878630        -0.165571         0.633734
 C        -0.785369         2.354173         1.652399
 H         1.698943         3.132786         0.962921
 H         1.311557         0.539386         3.665624
 H        -0.253369         1.481964         3.967944
 H        -0.788461        -0.855855         2.610133
 H        -2.319124         0.898931         1.517130
 H        -0.922933        -0.702884        -0.236638
 H        -0.435649         0.907438        -0.908432
 H         1.893266        -1.022977         1.093961
 H        -0.707120         2.949793         0.749690
 H        -1.306553         2.772963         2.502216
