19
Iteration:  1255charge 0 multiplicity 1
 O         1.811716         2.581736         1.970095
 C         0.650270         1.857427         1.910658
 C         0.405283         1.087059         3.186897
 C        -0.277120         0.077608         2.215836
 C        -1.346892         0.871622         1.388199
 C        -0.609232         0.330391         0.092507
 C         0.639168         0.459290         1.013043
 O         1.848069        -0.110378         0.609721
 C        -0.803589         2.389031         1.478652
 H         1.665408         3.146468         2.755486
 H         1.348724         0.572443         3.467813
 H        -0.241327         1.490162         3.979273
 H        -0.546414        -1.044621         2.537510
 H        -2.439389         0.664617         1.427189
 H        -0.643591        -0.778494        -0.072571
 H        -0.861149         0.890724        -0.826853
 H         2.016020         0.112752        -0.379909
 H        -0.957431         2.957068         0.553674
 H        -1.198052         2.967453         2.366973
