19
Iteration:   471
 O         1.673124         2.721105         1.901942
 C         0.600698         1.835815         1.873014
 C         0.429426         0.965020         3.165402
 C        -0.264104         0.009461         2.185909
 C        -1.294503         0.952146         1.465574
 C        -0.590473         0.518357         0.091833
 C         0.654645         0.402511         0.985371
 O         1.887455        -0.203248         0.679434
 C        -0.829655         2.340299         1.516852
 H         2.454294         2.309802         2.289570
 H         1.359600         0.491446         3.577656
 H        -0.156449         1.320734         4.019228
 H        -0.542456        -0.915190         2.450277
 H        -2.397451         0.532111         1.613577
 H        -1.084122        -0.384368        -0.362163
 H        -0.548812         1.378449        -0.698314
 H         2.347153         0.326788         0.049103
 H        -1.041311         2.853576         0.507577
 H        -1.246619         2.908878         2.359225
