19
Iteration:  4363
 O         1.734266         2.828528         1.746605
 C         0.595800         1.973378         1.831224
 C         0.390927         1.088002         3.164983
 C        -0.181573         0.028021         2.241784
 C        -1.330490         0.898853         1.335496
 C        -0.564847         0.224171         0.154225
 C         0.639010         0.397838         1.086243
 O         1.765200        -0.340629         0.895966
 C        -0.764734         2.363266         1.375004
 H         1.904632         3.606198         2.297904
 H         1.401183         1.033410         3.441626
 H        -0.237904         1.574234         3.919055
 H        -0.511852        -0.894560         2.600009
 H        -2.354408         0.779683         1.385129
 H        -0.926233        -0.776744        -0.045314
 H        -0.321831         0.539909        -0.807530
 H         2.415918         0.340030         0.734954
 H        -0.884260         2.696570         0.397870
 H        -1.301494         2.995788         2.042626
