19
Iteration:  1063charge 0 multiplicity 1
 O         1.683715         2.769686         1.818366
 C         0.654872         1.811801         1.984468
 C         0.414110         0.921611         3.237664
 C        -0.328394        -0.010525         2.283000
 C        -1.299724         0.956209         1.310605
 C        -0.533206         0.583665         0.057605
 C         0.621367         0.379875         1.024575
 O         1.808056        -0.263874         0.620827
 C        -0.726793         2.296731         1.598871
 H         1.424838         3.289788         1.042088
 H         1.352533         0.449753         3.522140
 H        -0.193589         1.362081         4.137142
 H        -0.554305        -0.980672         2.493296
 H        -2.369037         0.833739         1.420807
 H        -0.688174        -0.343139        -0.516527
 H        -0.419935         1.339504        -0.794334
 H         2.550157         0.162599         1.009104
 H        -0.890859         3.067513         0.756340
 H        -1.121890         2.836078         2.456433
