19
Iteration:  3312
 O         1.781957         2.695514         1.841017
 C         0.637237         1.942519         1.859365
 C         0.304732         1.109648         3.182612
 C        -0.243255         0.031079         2.216457
 C        -1.327389         0.903760         1.351404
 C        -0.571928         0.370673         0.173486
 C         0.614468         0.448498         1.058993
 O         1.859817        -0.312473         0.786704
 C        -0.768761         2.335517         1.482277
 H         1.772670         3.111796         0.968755
 H         1.205860         0.811732         3.729061
 H        -0.415670         1.518411         3.766234
 H        -0.440317        -0.996815         2.505711
 H        -2.435130         0.697730         1.278455
 H        -0.838796        -0.689346        -0.042647
 H        -0.833400         1.087172        -0.655481
 H         2.450914         0.134060         0.118855
 H        -0.617637         3.007913         0.580992
 H        -1.267437         2.872444         2.335868
