19
Iteration:  1042
 O         1.665775         2.683071         1.701316
 C         0.673605         1.738467         1.902110
 C         0.579145         0.879070         3.140998
 C        -0.442579         0.045120         2.179967
 C        -1.373925         0.940145         1.285090
 C        -0.448130         0.573347         0.065448
 C         0.613412         0.438269         1.056088
 O         1.800476        -0.132676         0.806639
 C        -0.780242         2.312303         1.788423
 H         1.437174         3.094244         0.844343
 H         1.370285         0.201510         3.230081
 H         0.211958         1.395145         4.053238
 H        -0.824945        -0.861687         2.336591
 H        -2.414971         0.782261         1.164731
 H        -0.619191        -0.305781        -0.562229
 H        -0.199665         1.381195        -0.693506
 H         2.578599         0.020880         1.470549
 H        -1.020506         2.947068         0.911173
 H        -1.250964         2.805442         2.617433
