19
Iteration:  1419charge 0 multiplicity 1
 O         1.755714         2.682114         1.961446
 C         0.673608         1.797151         1.967871
 C         0.472583         0.979671         3.229625
 C        -0.398391         0.103298         2.328669
 C        -1.329603         0.929457         1.332631
 C        -0.650451         0.349640         0.032846
 C         0.607920         0.385560         1.040415
 O         1.852770        -0.016358         0.634568
 C        -0.685341         2.291600         1.357169
 H         1.508769         3.626976         2.056926
 H         1.346399         0.377487         3.385302
 H         0.157493         1.539923         4.149008
 H        -0.814041        -0.911104         2.617770
 H        -2.333236         0.966285         1.456435
 H        -0.676981        -0.673288        -0.097992
 H        -0.585231         0.894159        -0.822729
 H         1.788765        -0.895689         0.349103
 H        -0.541019         2.840572         0.410661
 H        -1.280302         2.940316         2.006072
