19
Iteration:  3878charge 0 multiplicity 1
 O         1.602888         2.847229         1.735471
 C         0.635852         1.869413         1.843926
 C         0.504557         1.037574         3.140041
 C        -0.265029         0.035003         2.255371
 C        -1.353524         0.913096         1.280285
 C        -0.596306         0.417817         0.074782
 C         0.614250         0.304076         1.084199
 O         1.859284        -0.307720         0.970460
 C        -0.748444         2.370980         1.427973
 H         2.467306         2.560284         2.032074
 H         1.498777         0.638330         3.505910
 H         0.006317         1.488238         3.986241
 H        -0.653141        -0.875930         2.592991
 H        -2.418774         0.748791         1.522275
 H        -0.917843        -0.583835        -0.175294
 H        -0.647427         1.028284        -0.786646
 H         2.422969         0.302981         0.467388
 H        -0.812535         3.067457         0.559109
 H        -1.256456         3.005381         2.238205
