19
Iteration:  4042charge 0 multiplicity 1
 O         1.671434         2.808764         1.733598
 C         0.670502         1.885454         1.751193
 C         0.425789         1.131306         3.068132
 C        -0.325632         0.017768         2.366676
 C        -1.359968         0.942600         1.348609
 C        -0.553858         0.395451         0.085726
 C         0.643600         0.301082         1.037961
 O         1.886803        -0.352612         0.938370
 C        -0.747598         2.307448         1.458994
 H         1.428761         3.521565         2.360945
 H         1.430415         0.717203         3.476553
 H        -0.098600         1.560118         3.916694
 H        -0.652958        -0.906179         2.715976
 H        -2.458986         0.734799         1.538319
 H        -0.964345        -0.618447        -0.235937
 H        -0.380531         1.025110        -0.854595
 H         2.394019         0.433414         0.519662
 H        -0.943167         2.958626         0.615827
 H        -1.131295         2.881908         2.300251
