19
Iteration:   475charge 0 multiplicity 1
 O         1.701631         2.714022         1.941564
 C         0.595678         1.839695         1.883699
 C         0.419504         1.012393         3.137323
 C        -0.256383         0.029025         2.201076
 C        -1.336101         0.940234         1.439635
 C        -0.623213         0.483688         0.106955
 C         0.664519         0.389872         0.940659
 O         1.879490        -0.184380         0.666491
 C        -0.801455         2.329571         1.519129
 H         2.549492         2.293286         2.218308
 H         1.361215         0.553577         3.530035
 H        -0.252034         1.165620         4.041717
 H        -0.541686        -1.104449         2.506919
 H        -2.381456         0.609177         1.634660
 H        -1.088168        -0.498021        -0.292617
 H        -0.604894         1.346423        -0.660963
 H         2.455762         0.518718         0.200723
 H        -0.957456         2.777716         0.535126
 H        -1.204862         2.962749         2.329411
