19
Iteration:  2853
 O         1.751047         2.685119         1.576866
 C         0.614467         1.805079         1.783952
 C         0.408758         0.983021         3.215156
 C        -0.326588         0.071366         2.274545
 C        -1.332218         0.883780         1.401565
 C        -0.669420         0.495253         0.036767
 C         0.635425         0.420076         1.002813
 O         1.909510        -0.139559         1.018445
 C        -0.795882         2.276223         1.489775
 H         2.188969         2.707236         2.431985
 H         1.371970         0.442144         3.412747
 H        -0.066225         1.558923         4.016872
 H        -0.747328        -1.025421         2.267399
 H        -2.367892         0.703517         1.603856
 H        -0.898232        -0.555046        -0.233583
 H        -0.486143         1.189079        -0.822091
 H         2.611989         0.680419         1.015670
 H        -0.796058         2.823841         0.548423
 H        -1.210689         2.916073         2.289174
