19
Iteration:  3845charge 0 multiplicity 1
 O         1.649909         2.864274         1.590630
 C         0.706916         1.885799         1.816701
 C         0.475613         0.970256         3.195089
 C        -0.342100         0.029733         2.223011
 C        -1.368279         0.877177         1.226242
 C        -0.457015         0.400451         0.071829
 C         0.639630         0.456605         1.106594
 O         1.739011        -0.272091         1.057187
 C        -0.803500         2.373916         1.587884
 H         2.584479         2.548948         1.601743
 H         1.424112         0.487829         3.583002
 H        -0.137608         1.366131         4.012852
 H        -0.462427        -1.016559         2.379357
 H        -2.460193         0.681603         1.332684
 H        -0.514814        -0.660663        -0.132160
 H        -0.497494         0.821698        -0.901428
 H         2.194287        -0.078403         0.132717
 H        -0.857522         3.164816         0.771432
 H        -1.134768         2.680586         2.645393
