19
Iteration:  3778charge 0 multiplicity 1
 O         1.772004         2.757758         1.726004
 C         0.682149         1.837299         1.923493
 C         0.359583         1.113864         3.204216
 C        -0.340866         0.087946         2.279496
 C        -1.304602         0.839078         1.278028
 C        -0.590812         0.176492         0.036913
 C         0.531832         0.451521         1.065598
 O         1.828470        -0.102840         0.860380
 C        -0.696563         2.398585         1.504607
 H         2.581499         2.230529         1.858882
 H         1.209709         0.623111         3.690731
 H        -0.395150         1.495540         3.919473
 H        -0.573878        -0.963326         2.662156
 H        -2.393060         0.736717         1.441755
 H        -0.690353        -0.905716        -0.037827
 H        -0.730526         0.522249        -0.961102
 H         2.219473         0.365497         0.175564
 H        -0.660054         3.042370         0.535567
 H        -1.278812         2.915570         2.340996
