19
Iteration:   169charge 0 multiplicity 1
 O         1.684184         2.735371         1.854754
 C         0.580162         1.838431         1.982450
 C         0.418705         0.878023         3.181856
 C        -0.298265        -0.017798         2.186026
 C        -1.304622         0.926232         1.300534
 C        -0.589227         0.497096         0.033938
 C         0.596394         0.434963         1.090597
 O         1.867096        -0.130756         0.715781
 C        -0.757792         2.361514         1.564879
 H         2.440805         2.140938         1.908055
 H         1.469678         0.556101         3.504402
 H        -0.082321         1.221333         4.129951
 H        -0.504166        -1.192946         2.342803
 H        -2.380608         0.726427         1.420031
 H        -0.949014        -0.488930        -0.409041
 H        -0.474762         1.245245        -0.759250
 H         2.350782         0.646293         0.462769
 H        -0.456076         2.767660         0.559557
 H        -1.399816         3.075911         2.147334
