19
Iteration:  3392
 O         1.738549         2.638128         1.646757
 C         0.642150         1.875912         1.880950
 C         0.335731         1.026224         3.168918
 C        -0.289926         0.041466         2.214879
 C        -1.303644         0.955654         1.319697
 C        -0.580718         0.436652         0.080691
 C         0.626749         0.415899         1.075032
 O         1.901642        -0.241670         0.864076
 C        -0.754809         2.337460         1.601451
 H         1.446961         3.136210         0.875633
 H         1.228976         0.692953         3.673974
 H        -0.275222         1.469279         3.952473
 H        -0.625975        -0.916082         2.632914
 H        -2.430908         0.924156         1.595211
 H        -0.889507        -0.628853        -0.195244
 H        -0.520595         1.094867        -0.863998
 H         2.593784         0.292093         1.260226
 H        -1.035584         3.079002         0.824815
 H        -1.248348         2.823206         2.482338
