19
Iteration:  2089
 O         1.615506         2.786209         1.731074
 C         0.660076         1.789351         1.838992
 C         0.528181         0.888963         3.185287
 C        -0.271220         0.064786         2.231026
 C        -1.358359         0.884799         1.315491
 C        -0.505512         0.679759         0.018707
 C         0.635532         0.400405         1.043103
 O         1.825204        -0.335653         1.018868
 C        -0.799503         2.282492         1.560792
 H         1.298092         3.280155         0.950135
 H         1.513979         0.553512         3.371168
 H         0.038355         1.277563         4.125376
 H        -0.613018        -0.944323         2.400476
 H        -2.488379         0.737349         1.204022
 H        -0.627719        -0.023788        -0.706567
 H        -0.394292         1.635528        -0.441677
 H         2.237744        -0.104860         0.077986
 H        -0.856296         3.066713         0.777663
 H        -1.244479         2.806522         2.450512
