19
Iteration:  2346
 O         1.830308         2.685779         1.786748
 C         0.626701         1.854399         1.906175
 C         0.374273         1.032709         3.199639
 C        -0.324790         0.058247         2.225922
 C        -1.386170         0.895673         1.297232
 C        -0.603699         0.266718         0.080633
 C         0.639972         0.488673         1.034110
 O         1.876306        -0.152796         0.848457
 C        -0.759531         2.359237         1.514405
 H         1.649162         3.208621         0.973222
 H         1.387893         0.646742         3.481711
 H        -0.304973         1.380201         3.978258
 H        -0.535590        -0.926993         2.441866
 H        -2.493558         0.725331         1.373175
 H        -0.892270        -0.811526        -0.019800
 H        -0.662765         0.736365        -0.910937
 H         2.478049         0.555278         0.955077
 H        -0.893841         3.029188         0.591885
 H        -1.246672         2.848666         2.394695
