19
Iteration:  4185charge 0 multiplicity 1
 O         1.643147         2.791900         1.693439
 C         0.668810         1.859726         1.773169
 C         0.407237         1.162024         3.174105
 C        -0.293941         0.112895         2.319618
 C        -1.354327         0.965301         1.299937
 C        -0.529567         0.407843         0.115711
 C         0.683032         0.350872         1.092528
 O         1.915865        -0.447143         0.828610
 C        -0.829864         2.311623         1.476326
 H         1.593423         3.281366         2.520437
 H         1.375806         0.722585         3.561806
 H        -0.078673         1.698430         4.054842
 H        -0.757922        -0.857115         2.736514
 H        -2.468455         0.739101         1.413588
 H        -0.865050        -0.674493        -0.140749
 H        -0.442340         1.057897        -0.796364
 H         2.589271         0.142393         1.104730
 H        -0.951209         2.769647         0.525866
 H        -1.366523         2.942315         2.154769
