19
Iteration:  3191
 O         1.714963         2.666631         1.793078
 C         0.573502         1.859053         1.920609
 C         0.433529         1.063032         3.183491
 C        -0.373465         0.071289         2.291672
 C        -1.366325         0.932081         1.368252
 C        -0.496974         0.308929         0.043840
 C         0.620947         0.346543         1.082537
 O         1.878227        -0.175941         0.813076
 C        -0.736839         2.395300         1.468123
 H         1.625180         3.233065         1.017449
 H         1.355241         0.460774         3.373419
 H         0.164829         1.651731         4.011616
 H        -0.655401        -0.972228         2.560706
 H        -2.333927         0.592133         1.287705
 H        -0.914928        -0.685807        -0.155891
 H        -0.641292         0.953789        -0.924536
 H         2.319566         0.541272         0.334541
 H        -0.605296         3.109344         0.660987
 H        -1.072210         2.933986         2.357847
