19
Iteration:  2297charge 0 multiplicity 1
 O         1.635530         2.929464         1.960335
 C         0.647449         1.934151         1.863101
 C         0.488566         1.121065         3.151110
 C        -0.283201         0.081006         2.218164
 C        -1.272024         0.924592         1.255645
 C        -0.516953         0.358962         0.117443
 C         0.662377         0.279270         1.042263
 O         1.820276        -0.479138         0.763691
 C        -0.814376         2.341932         1.547826
 H         1.599240         3.631957         1.291849
 H         1.275294         0.537516         3.602286
 H        -0.078099         1.743636         3.874533
 H        -0.654672        -0.930182         2.676342
 H        -2.334257         0.751044         1.322456
 H        -0.834550        -0.670288        -0.143403
 H        -0.334638         0.997633        -0.904855
 H         2.023270        -0.158271        -0.196133
 H        -0.925983         2.984147         0.706968
 H        -1.381064         2.799996         2.364757
