19
Iteration:  3636
 O         1.864625         2.562931         1.707448
 C         0.573472         1.810654         1.854380
 C         0.425068         1.047040         3.230001
 C        -0.318955         0.007468         2.284437
 C        -1.359768         0.914543         1.320781
 C        -0.565263         0.329150         0.160800
 C         0.590400         0.446761         1.088986
 O         1.887813        -0.071568         0.765129
 C        -0.829230         2.390278         1.462484
 H         1.744188         3.498601         1.976601
 H         1.339040         0.662574         3.616243
 H        -0.371658         1.391012         3.909102
 H        -0.868427        -0.879270         2.731888
 H        -2.411267         0.733298         1.327902
 H        -0.945199        -0.695525        -0.056582
 H        -0.534644         0.797165        -0.920477
 H         2.433988         0.722502         0.879890
 H        -0.756550         2.877002         0.412713
 H        -1.263328         3.061457         2.250374
