19
Iteration:   484charge 0 multiplicity 1
 O         1.744794         2.729118         1.982835
 C         0.645345         1.850220         1.899184
 C         0.388164         1.008837         3.127194
 C        -0.241391         0.026062         2.213063
 C        -1.371048         0.851382         1.373723
 C        -0.687675         0.422717         0.110480
 C         0.595998         0.410063         0.951347
 O         1.878427        -0.138100         0.630917
 C        -0.741586         2.333100         1.555003
 H         2.508961         2.120716         2.130646
 H         1.431855         0.714716         3.464400
 H        -0.252494         1.390365         3.966694
 H        -0.494345        -1.006004         2.475472
 H        -2.534406         0.870134         1.582071
 H        -0.902625        -0.679559        -0.204309
 H        -0.804322         1.110396        -0.849481
 H         2.497814         0.650803         0.542731
 H        -0.712066         2.883004         0.550868
 H        -1.180064         3.050893         2.275702
