19
Iteration:  3862
 O         1.629968         2.866047         1.628544
 C         0.605779         1.895295         1.957107
 C         0.502311         0.978489         3.178830
 C        -0.361586         0.182323         2.181195
 C        -1.323193         0.922316         1.327150
 C        -0.537797         0.326104         0.035066
 C         0.645265         0.518212         1.016033
 O         1.835142        -0.356366         1.023578
 C        -0.796642         2.303723         1.552755
 H         2.444184         2.344964         1.776664
 H         1.381278         0.374592         3.212983
 H         0.197899         1.349308         4.234514
 H        -0.553250        -0.971562         2.313489
 H        -2.393608         0.796622         1.275475
 H        -0.762905        -0.774629        -0.000327
 H        -0.479946         1.014607        -0.876583
 H         2.565662        -0.009251         0.359783
 H        -0.707677         2.750808         0.568707
 H        -1.367240         2.850925         2.244880
