19
Iteration:  2553
 O         1.785300         2.552714         1.516063
 C         0.582655         1.763043         1.858489
 C         0.498939         1.005565         3.190763
 C        -0.384161         0.009059         2.256952
 C        -1.422921         0.846975         1.341138
 C        -0.574849         0.426266         0.022191
 C         0.580459         0.424630         1.105426
 O         1.914805         0.023548         0.974504
 C        -0.754529         2.336719         1.574815
 H         1.728685         3.464398         1.833863
 H         1.485839         0.679969         3.508056
 H        -0.072523         1.432347         3.988225
 H        -0.654696        -0.937294         2.477066
 H        -2.552067         0.821077         1.392037
 H        -0.797427        -0.634196        -0.210548
 H        -0.583864         1.157183        -0.779500
 H         2.326030         0.719605         1.409989
 H        -0.645772         2.710307         0.567760
 H        -1.154987         3.000225         2.275900
