19
Iteration:  3371charge 0 multiplicity 1
 O         1.710076         2.750114         1.657716
 C         0.649520         1.814106         1.856862
 C         0.547174         0.962437         3.194199
 C        -0.390423         0.065520         2.267160
 C        -1.373717         0.936949         1.333962
 C        -0.453708         0.439951         0.043611
 C         0.570660         0.398093         1.116484
 O         1.807512        -0.252081         0.918375
 C        -0.793220         2.345323         1.539210
 H         1.370497         3.469530         1.078070
 H         1.443982         0.346787         3.325286
 H         0.318933         1.356067         4.239561
 H        -0.784991        -0.952291         2.452464
 H        -2.442762         0.631800         1.156364
 H        -0.853333        -0.532278        -0.377782
 H        -0.430681         1.235632        -0.784616
 H         2.524401         0.289394         1.219669
 H        -0.700998         2.889188         0.565031
 H        -1.217599         3.132687         2.210829
