19
Iteration:  1471
 O         1.714512         2.733039         1.596156
 C         0.646530         1.798603         1.942479
 C         0.394394         0.919492         3.239547
 C        -0.354098         0.075957         2.175102
 C        -1.317489         0.866137         1.247826
 C        -0.539713         0.589602        -0.030357
 C         0.687264         0.438908         1.031323
 O         1.873408        -0.234160         0.983535
 C        -0.791163         2.328246         1.792840
 H         1.545539         3.189667         0.742517
 H         1.275659         0.440653         3.727940
 H        -0.074176         1.488825         4.060666
 H        -0.613757        -1.004904         2.417830
 H        -2.372446         0.638928         1.085679
 H        -0.751858        -0.426973        -0.521778
 H        -0.384541         1.531464        -0.748101
 H         1.949836        -0.527039         0.105250
 H        -0.928290         2.956288         0.954712
 H        -1.170744         2.915947         2.639720
