19
Iteration:    44charge 0 multiplicity 1
 O         1.756700         2.569119         1.819328
 C         0.582244         1.809154         1.953795
 C         0.334086         0.988461         3.188311
 C        -0.314556         0.069223         2.219657
 C        -1.359359         0.924174         1.335470
 C        -0.564201         0.379004         0.131846
 C         0.668181         0.509957         1.040735
 O         1.910982        -0.048122         0.532303
 C        -0.788118         2.351278         1.593041
 H         2.280917         2.456187         2.620341
 H         1.265373         0.586654         3.541887
 H        -0.247549         1.330962         4.018956
 H        -0.672350        -0.931940         2.290037
 H        -2.468958         0.646879         1.513071
 H        -0.738305        -0.682940         0.013158
 H        -0.601655         0.895472        -0.824519
 H         2.522822         0.493784         1.028560
 H        -0.858447         2.980859         0.728463
 H        -1.277410         2.905395         2.390807
