19
Iteration:  4140
 O         1.847822         2.616403         1.482149
 C         0.618550         1.845551         1.878670
 C         0.404128         0.981991         3.180251
 C        -0.432452         0.073061         2.270450
 C        -1.399508         0.846336         1.368246
 C        -0.537549         0.404818         0.068291
 C         0.628795         0.439595         1.147966
 O         1.889988        -0.045861         1.027636
 C        -0.822572         2.304144         1.427006
 H         2.200594         2.935168         2.313262
 H         1.353755         0.529738         3.589781
 H        -0.087100         1.560619         3.956645
 H        -0.494692        -0.953411         2.526174
 H        -2.530762         0.690669         1.316624
 H        -0.863235        -0.660573        -0.018045
 H        -0.342305         0.930621        -0.886814
 H         2.251205         0.757443         0.686714
 H        -0.955837         2.901747         0.556045
 H        -1.262039         2.820530         2.223399
