19
Iteration:  3002charge 0 multiplicity 1
 O         1.681273         2.743865         1.692909
 C         0.653301         1.788593         1.910206
 C         0.432083         1.049980         3.280839
 C        -0.375066         0.027661         2.216802
 C        -1.339183         0.913336         1.383790
 C        -0.552266         0.510157         0.069435
 C         0.619746         0.460842         1.101905
 O         1.879950        -0.303132         0.746133
 C        -0.699918         2.294719         1.495633
 H         1.443721         3.329401         0.958142
 H         1.187806         0.725722         3.957001
 H        -0.277951         1.601896         3.942161
 H        -0.521905        -1.009182         2.580406
 H        -2.498241         0.801535         1.573261
 H        -0.825402        -0.479618        -0.309250
 H        -0.402586         1.188172        -0.838323
 H         2.592380        -0.094517         1.277532
 H        -0.774519         2.828356         0.535374
 H        -1.178892         2.896339         2.307514
