19
Iteration:  4644charge 0 multiplicity 1
 O         1.592759         2.925243         1.665589
 C         0.663500         1.888771         1.869395
 C         0.451819         1.189059         3.171700
 C        -0.314173         0.121143         2.253189
 C        -1.381149         0.836277         1.224784
 C        -0.501638         0.229572         0.132758
 C         0.682042         0.431320         1.103343
 O         1.785152        -0.368441         0.987263
 C        -0.731572         2.284333         1.436982
 H         2.342435         2.800914         2.277001
 H         1.395496         0.629910         3.464528
 H         0.069866         1.781804         4.112726
 H        -0.314100        -0.951450         2.598653
 H        -2.484770         0.890845         1.435341
 H        -0.804777        -0.790193        -0.101655
 H        -0.495586         0.749371        -0.831123
 H         2.230971        -0.269834         0.175852
 H        -0.596866         2.852622         0.503313
 H        -1.239191         3.024018         2.130479
