19
Iteration:   752charge 0 multiplicity 1
 O         1.752614         2.759417         1.835160
 C         0.643168         1.845653         1.861795
 C         0.541734         0.964607         3.120310
 C        -0.343957         0.036030         2.223389
 C        -1.360242         0.834748         1.298017
 C        -0.565765         0.620230         0.033252
 C         0.586733         0.434024         1.027515
 O         1.844749        -0.207232         0.845151
 C        -0.832763         2.284149         1.680151
 H         1.728923         3.037313         0.904385
 H         1.571388         0.527951         3.353096
 H         0.106162         1.329416         4.050674
 H        -0.559673        -0.988687         2.349152
 H        -2.314571         0.618662         1.349847
 H        -0.666260        -0.362069        -0.456378
 H        -0.411379         1.413245        -0.771864
 H         1.617572        -0.956363         0.311531
 H        -1.017646         3.057874         0.955019
 H        -1.052174         2.649647         2.660835
