19
Iteration:  1915
 O         1.693761         2.762635         1.749542
 C         0.674352         1.812646         1.882844
 C         0.443835         0.854879         3.170211
 C        -0.361936         0.038140         2.208130
 C        -1.374059         0.985021         1.338859
 C        -0.541012         0.453459         0.073558
 C         0.601630         0.427198         1.101771
 O         1.960275        -0.089591         0.827445
 C        -0.809672         2.340447         1.619319
 H         1.781613         2.900534         0.782993
 H         1.361770         0.438459         3.505760
 H        -0.172680         1.322828         4.013182
 H        -0.692914        -0.948416         2.359687
 H        -2.395422         0.657379         1.530115
 H        -0.839066        -0.561840        -0.275055
 H        -0.325769         1.005773        -0.882216
 H         1.806799        -0.861270         0.352526
 H        -0.645407         2.953719         0.729157
 H        -1.349937         2.784159         2.439693
