19
Iteration:  1635
 O         1.711820         2.724344         1.733698
 C         0.639016         1.760234         1.887997
 C         0.569302         0.874648         3.147209
 C        -0.334226        -0.003314         2.115813
 C        -1.420888         0.911248         1.334146
 C        -0.569704         0.645171        -0.042639
 C         0.594251         0.438906         1.014778
 O         1.901301        -0.143607         1.037774
 C        -0.786225         2.295385         1.654496
 H         1.487246         3.264861         0.958840
 H         1.544488         0.503372         3.279311
 H         0.248240         1.382320         4.084299
 H        -0.625803        -1.058964         2.304031
 H        -2.397024         0.885467         1.643158
 H        -0.984806        -0.169311        -0.631900
 H        -0.644196         1.555589        -0.710536
 H         1.831836        -1.087354         0.596139
 H        -0.803797         2.956570         0.775903
 H        -1.173488         2.799018         2.540413
