19
Iteration:  2801charge 0 multiplicity 1
 O         1.690608         2.875984         1.738334
 C         0.717017         1.862409         1.934554
 C         0.368193         1.075262         3.269268
 C        -0.307541         0.160665         2.245244
 C        -1.348115         0.856936         1.268579
 C        -0.487818         0.348203         0.044726
 C         0.745095         0.439141         1.073814
 O         1.824183        -0.344396         0.831496
 C        -0.891443         2.333113         1.568297
 H         2.441464         2.575505         1.230063
 H         1.210891         0.484095         3.700444
 H        -0.363244         1.597555         3.860458
 H        -0.466044        -0.930646         2.435499
 H        -2.354869         0.735635         1.295984
 H        -0.485285        -0.820960        -0.060337
 H        -0.531578         0.950618        -0.942106
 H         1.745009        -0.545129        -0.151798
 H        -1.011166         3.099978         0.752671
 H        -1.379267         2.836530         2.431888
