19
Iteration:   496
 O         1.784323         2.737094         1.959992
 C         0.679496         1.820968         1.913035
 C         0.428127         0.972538         3.201064
 C        -0.334350         0.006707         2.194076
 C        -1.337522         0.866086         1.347919
 C        -0.706427         0.298310         0.030140
 C         0.574127         0.522308         1.031819
 O         1.805219        -0.048358         0.598872
 C        -0.679817         2.345737         1.538783
 H         2.558376         2.256991         2.289249
 H         1.255922         0.442239         3.773552
 H        -0.038254         1.754379         3.870453
 H        -0.509770        -1.136032         2.382381
 H        -2.480182         0.705384         1.458926
 H        -0.808626        -0.876802         0.001282
 H        -0.903972         0.794676        -1.030860
 H         2.501046         0.671380         0.741634
 H        -0.691053         2.966127         0.606069
 H        -1.217506         2.806872         2.393519
