19
Iteration:  3030
 O         1.805566         2.695097         1.724935
 C         0.615764         1.837805         1.893169
 C         0.346247         1.044468         3.209811
 C        -0.386197         0.005857         2.286239
 C        -1.328318         0.914493         1.352803
 C        -0.541813         0.350000         0.066939
 C         0.600036         0.441606         1.088391
 O         1.857112        -0.201695         0.741715
 C        -0.705971         2.388114         1.530389
 H         1.511413         3.433432         1.192493
 H         1.295100         0.577640         3.590272
 H        -0.316715         1.477550         4.008026
 H        -0.489435        -0.899601         2.839454
 H        -2.368004         0.772246         1.376811
 H        -0.883636        -0.720613         0.053625
 H        -0.401601         0.765426        -0.916544
 H         2.510937         0.457877         0.770835
 H        -0.921254         2.936940         0.602212
 H        -1.147103         2.901206         2.396260
