19
Iteration:  4297charge 0 multiplicity 1
 O         1.724590         2.558551         1.413771
 C         0.598215         1.894924         1.891626
 C         0.336995         1.044476         3.205358
 C        -0.311648         0.061968         2.251441
 C        -1.330359         0.925282         1.357477
 C        -0.439258         0.422669         0.144466
 C         0.637197         0.432081         1.097859
 O         1.910197        -0.173934         1.012771
 C        -0.900449         2.357226         1.504839
 H         2.225393         2.926170         2.159957
 H         1.283311         0.732185         3.624153
 H        -0.351089         1.506893         4.007501
 H        -0.665860        -0.971437         2.420498
 H        -2.322827         0.629199         1.393779
 H        -0.751413        -0.607459        -0.205311
 H        -0.475816         0.961232        -0.822623
 H         2.675520         0.489189         0.784621
 H        -0.961958         2.920457         0.589451
 H        -1.314933         2.980191         2.296257
