19
Iteration:  2550charge 0 multiplicity 1
 O         1.771792         2.525796         1.533141
 C         0.570686         1.756306         1.848563
 C         0.515392         1.024938         3.188250
 C        -0.378782        -0.003141         2.255526
 C        -1.419776         0.846589         1.333733
 C        -0.564996         0.450549         0.060448
 C         0.610751         0.441672         1.083716
 O         1.888889         0.020853         0.977559
 C        -0.770314         2.327227         1.552670
 H         1.744893         3.485996         1.723524
 H         1.504314         0.567156         3.513272
 H         0.030539         1.497775         4.051519
 H        -0.676122        -1.069584         2.560409
 H        -2.532237         0.812057         1.366406
 H        -0.743986        -0.572298        -0.278597
 H        -0.604126         1.126953        -0.737970
 H         2.336125         0.817408         1.451996
 H        -0.615590         2.780539         0.540197
 H        -1.184082         3.057759         2.272675
