19
Iteration:   269
 O         1.644938         2.803979         1.847223
 C         0.664142         1.767839         1.869569
 C         0.514849         0.842916         3.143921
 C        -0.342910         0.078619         2.167411
 C        -1.301461         0.965287         1.257498
 C        -0.483412         0.610280        -0.036716
 C         0.593683         0.385259         0.997461
 O         1.851329        -0.262706         0.783186
 C        -0.833476         2.270700         1.753949
 H         1.654958         3.479430         1.139215
 H         1.389636         0.159463         3.401428
 H         0.170967         1.307107         4.119453
 H        -0.736815        -1.056364         2.313466
 H        -2.436697         0.793965         1.371019
 H        -0.851858        -0.394133        -0.436438
 H        -0.406654         1.441548        -0.716446
 H         2.425810         0.159095         1.391040
 H        -0.980308         3.237878         1.253825
 H        -1.320078         2.546423         2.750182
