19
Iteration:   886charge 0 multiplicity 1
 O         1.625665         2.761373         1.664876
 C         0.661627         1.757707         1.945687
 C         0.489837         0.889976         3.192038
 C        -0.364917         0.051811         2.168086
 C        -1.378144         1.002813         1.283945
 C        -0.435529         0.573411         0.043572
 C         0.614177         0.422725         1.069064
 O         1.905362        -0.105680         0.809785
 C        -0.823917         2.238832         1.767260
 H         2.356581         2.364819         1.154284
 H         1.436220         0.279774         3.253189
 H         0.049841         1.414386         4.117313
 H        -0.817828        -0.995173         2.259453
 H        -2.515297         0.773948         1.148930
 H        -0.896063        -0.317228        -0.504891
 H        -0.404928         1.373152        -0.846737
 H         1.809725        -1.024291         0.925083
 H        -0.979507         3.098175         1.024997
 H        -1.106231         2.695471         2.755245
