19
Iteration:  3293charge 0 multiplicity 1
 O         1.740590         2.706837         1.877838
 C         0.670967         1.782362         1.863988
 C         0.419810         1.123563         3.211988
 C        -0.364976         0.128525         2.347036
 C        -1.357378         0.868815         1.418893
 C        -0.492544         0.415924        -0.019697
 C         0.595812         0.392607         1.068918
 O         1.803959        -0.211247         0.762922
 C        -0.754849         2.277648         1.425836
 H         1.856555         3.019107         0.961980
 H         1.314177         0.606131         3.653655
 H        -0.100752         1.763516         3.995812
 H        -0.567080        -0.888458         2.640183
 H        -2.504328         0.780612         1.693194
 H        -0.602474        -0.720975        -0.229277
 H        -0.393991         0.885999        -1.064676
 H         2.314713         0.361628         0.222131
 H        -0.813082         2.795988         0.460960
 H        -1.234228         2.979228         2.135810
