19
Iteration:  4445
 O         1.800570         2.592480         1.421672
 C         0.637844         1.795384         1.865851
 C         0.391386         1.088974         3.111695
 C        -0.394753         0.109812         2.257742
 C        -1.405673         0.855895         1.298937
 C        -0.589199         0.399645         0.096380
 C         0.634902         0.396756         1.082934
 O         1.963380        -0.082171         1.120906
 C        -0.826302         2.243497         1.550702
 H         1.736776         3.347049         2.054857
 H         1.325853         0.708328         3.645992
 H         0.006428         1.788493         3.890752
 H        -0.534699        -0.983978         2.494485
 H        -2.530479         0.779049         1.243598
 H        -0.688469        -0.639127         0.041460
 H        -0.676832         1.081766        -0.773600
 H         2.628392         0.592146         1.151134
 H        -0.962891         2.918412         0.624473
 H        -1.316116         2.942433         2.283315
