19
Iteration:  1908
 O         1.707184         2.699212         1.776529
 C         0.701195         1.792182         1.906583
 C         0.376559         0.947366         3.148490
 C        -0.399788         0.112658         2.224151
 C        -1.351218         0.965724         1.338097
 C        -0.508350         0.410969         0.076896
 C         0.591652         0.405955         1.044749
 O         1.983635        -0.042399         0.773231
 C        -0.816182         2.306420         1.648045
 H         1.769375         2.856701         0.817949
 H         1.214614         0.321896         3.565400
 H        -0.171233         1.467217         3.934604
 H        -0.639732        -0.983087         2.418082
 H        -2.364419         0.710785         1.480614
 H        -0.787008        -0.723788        -0.032004
 H        -0.500422         1.026332        -0.849581
 H         1.891039        -0.895465         0.317701
 H        -0.848424         3.076477         0.818865
 H        -1.150705         2.740592         2.607905
