19
Iteration:  1666charge 0 multiplicity 1
 O         1.700197         2.769582         1.814735
 C         0.629641         1.813207         1.923067
 C         0.460462         0.895622         3.223775
 C        -0.352761         0.047720         2.241489
 C        -1.344578         0.971655         1.239474
 C        -0.453657         0.463131         0.009221
 C         0.637542         0.441809         1.078624
 O         1.849986        -0.149993         0.710672
 C        -0.820999         2.318791         1.680554
 H         2.019909         2.804183         0.886080
 H         1.453967         0.553447         3.375565
 H         0.023355         1.372886         4.123863
 H        -0.723745        -0.913297         2.629518
 H        -2.458592         0.879448         1.425412
 H        -0.811368        -0.510692        -0.290765
 H        -0.403121         1.088255        -0.879353
 H         1.707230        -1.034655         0.494314
 H        -0.823399         3.212016         0.917962
 H        -1.266606         2.609878         2.673964
