19
Iteration:   904charge 0 multiplicity 1
 O         1.635333         2.747543         1.705527
 C         0.636403         1.868180         1.898773
 C         0.507911         0.881586         3.161905
 C        -0.356846        -0.004735         2.238225
 C        -1.325743         0.855868         1.335523
 C        -0.477857         0.645876         0.010487
 C         0.621782         0.445298         1.012518
 O         1.825123        -0.184016         0.748644
 C        -0.821000         2.370683         1.686105
 H         2.358405         2.341843         2.220475
 H         1.511797         0.455387         3.362012
 H         0.023611         1.250150         4.022718
 H        -0.419772        -1.051732         2.492450
 H        -2.306208         0.662207         1.365979
 H        -0.656790        -0.271670        -0.503964
 H        -0.402697         1.401802        -0.681456
 H         1.960360        -0.919680         1.319019
 H        -0.877459         3.133386         0.978228
 H        -1.394897         2.629091         2.539453
