19
Iteration:  1810charge 0 multiplicity 1
 O         1.660881         2.853891         1.791051
 C         0.651806         1.836328         1.864306
 C         0.500819         0.916466         3.104724
 C        -0.395465         0.029511         2.245200
 C        -1.346255         0.933061         1.330664
 C        -0.459224         0.493659        -0.012386
 C         0.669366         0.426691         1.077789
 O         1.841751        -0.200410         0.811346
 C        -0.816263         2.304475         1.685098
 H         2.023007         2.589132         0.921912
 H         1.433897         0.430574         3.340047
 H         0.122218         1.357444         4.018756
 H        -0.636710        -1.001888         2.605621
 H        -2.375919         0.855291         1.304846
 H        -0.594058        -0.492162        -0.262783
 H        -0.414229         1.176776        -0.791014
 H         1.644981        -1.089490         0.543990
 H        -1.102625         3.137482         1.028435
 H        -1.213626         2.700262         2.625922
