19
Iteration:  1458charge 0 multiplicity 1
 O         1.785625         2.680568         1.695647
 C         0.673188         1.842096         1.876662
 C         0.378231         0.987508         3.164882
 C        -0.319491         0.017959         2.132715
 C        -1.328137         0.926238         1.328477
 C        -0.527734         0.550725         0.016240
 C         0.627481         0.502617         1.047917
 O         1.910793        -0.234957         0.965875
 C        -0.836996         2.310427         1.686581
 H         1.389702         3.383046         1.155557
 H         1.319494         0.521537         3.586207
 H        -0.322156         1.402950         3.884501
 H        -0.598387        -1.035504         2.271072
 H        -2.449252         0.682077         1.586269
 H        -0.925762        -0.472613        -0.335792
 H        -0.689791         1.208662        -0.955407
 H         1.970357        -0.708437         0.067805
 H        -0.966032         3.119271         0.949149
 H        -1.269961         2.510048         2.687382
