19
Iteration:  4648charge 0 multiplicity 1
 O         1.582524         2.938789         1.676430
 C         0.652135         1.889183         1.841856
 C         0.459725         1.176587         3.179025
 C        -0.327048         0.134846         2.250352
 C        -1.381326         0.847333         1.228860
 C        -0.507811         0.247910         0.143049
 C         0.686733         0.416866         1.097392
 O         1.814283        -0.395355         0.988026
 C        -0.737060         2.290903         1.430506
 H         2.296706         2.786025         2.319154
 H         1.373652         0.740272         3.540376
 H         0.108726         1.646324         4.068371
 H        -0.362383        -0.876794         2.573566
 H        -2.456170         0.900851         1.488011
 H        -0.772173        -0.894541        -0.011840
 H        -0.508947         0.819003        -0.827421
 H         2.259248        -0.343583         0.079644
 H        -0.674041         2.872257         0.504438
 H        -1.181244         3.004484         2.098162
