19
Iteration:  3995charge 0 multiplicity 1
 O         1.719741         2.597580         1.471030
 C         0.562839         1.846407         1.850229
 C         0.399688         0.997195         3.203260
 C        -0.325017         0.049538         2.239884
 C        -1.280089         0.883207         1.297298
 C        -0.419532         0.403138         0.136603
 C         0.666064         0.466071         1.111113
 O         1.800820        -0.178729         1.003209
 C        -0.800766         2.386937         1.600173
 H         1.517852         3.505528         1.824898
 H         1.380377         0.652222         3.570890
 H        -0.090527         1.552419         4.032920
 H        -0.483839        -1.046034         2.430475
 H        -2.368763         0.701126         1.234974
 H        -0.852737        -0.582226        -0.223608
 H        -0.528263         1.211995        -0.746939
 H         2.393352         0.433269         0.595130
 H        -0.937294         2.976853         0.681799
 H        -1.408772         2.882749         2.263510
