19
Iteration:  3584charge 0 multiplicity 1
 O         1.815693         2.621941         1.742121
 C         0.607564         1.843211         1.894160
 C         0.405954         1.097435         3.210370
 C        -0.409966         0.003501         2.362515
 C        -1.322830         0.876727         1.287661
 C        -0.569645         0.414165         0.105282
 C         0.630071         0.411634         1.172572
 O         1.842395        -0.138682         0.701524
 C        -0.758815         2.308396         1.385877
 H         1.727359         3.585841         1.694401
 H         1.369755         0.497688         3.505028
 H        -0.009732         1.444721         4.200249
 H        -0.470122        -1.006448         2.776100
 H        -2.437210         0.951568         1.394795
 H        -0.908618        -0.597566        -0.182460
 H        -0.579447         1.250847        -0.647778
 H         2.529434         0.569906         1.053017
 H        -0.848153         2.720513         0.394811
 H        -1.303197         2.771074         2.201312
