19
Iteration:  4388charge 0 multiplicity 1
 O         1.730403         2.718002         1.652734
 C         0.690611         1.749179         1.769563
 C         0.311510         1.175693         3.264728
 C        -0.386096         0.201676         2.320205
 C        -1.386597         0.828906         1.334096
 C        -0.584369         0.287586         0.134290
 C         0.714725         0.452426         1.088895
 O         1.934030        -0.257864         0.865638
 C        -0.742965         2.257449         1.430618
 H         1.566984         3.402994         2.305380
 H         1.338808         0.878287         3.603492
 H        -0.192708         1.878653         3.987877
 H        -0.655069        -0.724635         2.763265
 H        -2.521030         0.688589         1.276786
 H        -0.757397        -0.664984        -0.254211
 H        -0.654467         0.907424        -0.787446
 H         2.459102         0.512925         0.445630
 H        -0.821800         2.905628         0.474028
 H        -1.204023         2.795935         2.294635
