19
Iteration:  4106
 O         1.717864         2.557832         1.573202
 C         0.613251         1.814532         1.783245
 C         0.323846         1.135912         3.204193
 C        -0.338845         0.046876         2.329901
 C        -1.325528         0.870430         1.335748
 C        -0.465696         0.400722         0.111107
 C         0.571108         0.338197         1.104266
 O         1.907410        -0.068328         0.869598
 C        -0.762307         2.350299         1.497650
 H         2.129349         2.847302         2.380465
 H         1.271369         0.909023         3.785821
 H        -0.300444         1.750238         3.811755
 H        -0.565721        -0.889376         2.708579
 H        -2.417551         0.663582         1.458308
 H        -0.932583        -0.511604        -0.201082
 H        -0.380621         0.860031        -0.890557
 H         2.571309         0.712519         1.050159
 H        -0.946839         2.960654         0.610370
 H        -1.236467         2.764018         2.312589
