19
Iteration:  3025
 O         1.780870         2.708916         1.699081
 C         0.667541         1.844462         1.913967
 C         0.266570         1.007429         3.202113
 C        -0.320067         0.033931         2.280274
 C        -1.290157         0.928776         1.368634
 C        -0.542875         0.363887         0.129332
 C         0.607435         0.411736         1.064257
 O         1.846844        -0.223660         0.733839
 C        -0.743550         2.397660         1.524214
 H         1.448058         3.440860         1.126794
 H         1.182807         0.591874         3.627013
 H        -0.255567         1.395714         4.082184
 H        -0.604673        -0.995372         2.724534
 H        -2.416208         0.750759         1.306927
 H        -0.839401        -0.660143        -0.014138
 H        -0.423740         0.829241        -0.886443
 H         2.628866         0.452583         0.880379
 H        -0.869573         2.927046         0.568378
 H        -1.043885         3.032882         2.377249
