19
Iteration:  2551
 O         1.776501         2.534857         1.527480
 C         0.573350         1.757076         1.851041
 C         0.510724         1.019646         3.189574
 C        -0.381174        -0.000396         2.255833
 C        -1.421374         0.845628         1.335977
 C        -0.568228         0.443953         0.045438
 C         0.602166         0.436238         1.091345
 O         1.897246         0.022252         0.976846
 C        -0.765037         2.331850         1.561637
 H         1.742909         3.480857         1.757662
 H         1.505615         0.605322         3.514332
 H        -0.001029         1.470922         4.024434
 H        -0.669577        -1.019500         2.531586
 H        -2.549685         0.818170         1.374404
 H        -0.760549        -0.593637        -0.253757
 H        -0.598283         1.125374        -0.734571
 H         2.320904         0.785414         1.441533
 H        -0.619321         2.751466         0.547716
 H        -1.169270         3.034238         2.266692
