19
Iteration:    92charge 0 multiplicity 1
 O         1.641059         2.768513         1.856341
 C         0.647556         1.812984         1.901814
 C         0.516536         0.945450         3.125431
 C        -0.355193         0.006286         2.204072
 C        -1.414818         0.830358         1.374727
 C        -0.546021         0.590463         0.050822
 C         0.661007         0.490065         0.994762
 O         1.861953        -0.258636         0.794014
 C        -0.768048         2.323690         1.575916
 H         1.927907         2.945020         2.779157
 H         1.454126         0.330053         3.223663
 H         0.223061         1.458516         4.088187
 H        -0.378989        -1.114103         2.426868
 H        -2.453342         0.732517         1.284357
 H        -0.754723        -0.313869        -0.553529
 H        -0.551200         1.408003        -0.719844
 H         2.125237        -0.006100        -0.111692
 H        -0.771632         2.867698         0.564404
 H        -1.179688         2.930861         2.401426
