19
Iteration:   112
 O         1.594237         2.791169         1.766865
 C         0.570133         1.882156         1.907876
 C         0.604798         0.874287         3.146826
 C        -0.222515         0.019714         2.140367
 C        -1.286575         0.941685         1.282340
 C        -0.453356         0.619315        -0.012718
 C         0.612090         0.427935         1.014247
 O         1.760598        -0.334302         0.892449
 C        -0.921121         2.337722         1.689487
 H         2.183358         2.629136         2.540571
 H         1.626406         0.559352         3.195428
 H         0.193079         1.139571         4.115622
 H        -0.585176        -0.965913         2.406333
 H        -2.248323         0.657137         1.376391
 H        -0.721287        -0.305749        -0.430035
 H        -0.313828         1.400095        -0.783579
 H         2.265787        -0.101526         0.030226
 H        -0.954843         3.143497         0.922845
 H        -1.387950         2.690935         2.571439
