19
Iteration:   952
 O         1.758580         2.748040         1.987636
 C         0.689895         1.858751         1.921606
 C         0.379559         0.970127         3.175715
 C        -0.365608         0.024432         2.212049
 C        -1.274805         0.945685         1.298508
 C        -0.625468         0.338984         0.132279
 C         0.643746         0.428780         0.978863
 O         1.773085        -0.171074         0.488968
 C        -0.694486         2.315891         1.610030
 H         1.555495         3.479249         2.605635
 H         1.365652         0.460001         3.269794
 H        -0.145178         1.449339         4.095460
 H        -0.773167        -0.954482         2.603876
 H        -2.440813         0.882591         1.413962
 H        -0.850860        -0.750191        -0.055276
 H        -0.471616         0.793632        -0.926985
 H         2.630555         0.244776         0.876168
 H        -0.721903         2.953997         0.653780
 H        -1.103014         3.004743         2.395048
