19
Iteration:  3568charge 0 multiplicity 1
 O         1.726541         2.644066         1.743479
 C         0.614621         1.833387         1.884536
 C         0.486746         1.003141         3.199017
 C        -0.300736         0.133289         2.267192
 C        -1.385765         0.933632         1.343559
 C        -0.541033         0.366310         0.068742
 C         0.593808         0.381142         1.021093
 O         1.848904        -0.213131         0.850208
 C        -0.779375         2.368520         1.520748
 H         1.434913         3.542447         1.587129
 H         1.443904         0.640523         3.356421
 H         0.029847         1.526511         4.012357
 H        -0.768693        -0.853641         2.409369
 H        -2.418825         0.626067         1.445600
 H        -0.777162        -0.658287        -0.256303
 H        -0.405580         0.942722        -0.872323
 H         2.554015         0.514581         0.895156
 H        -0.707515         2.919669         0.529304
 H        -1.265314         3.051250         2.254179
