19
Iteration:  1300charge 0 multiplicity 1
 O         1.650782         2.759602         1.611263
 C         0.674088         1.783771         1.892528
 C         0.319767         0.888471         3.215584
 C        -0.355861         0.043186         2.185372
 C        -1.319876         0.913361         1.334038
 C        -0.546588         0.540266         0.088839
 C         0.652483         0.482685         1.033245
 O         1.916827        -0.152146         0.834487
 C        -0.740026         2.295527         1.693766
 H         2.310836         2.668307         2.321307
 H         1.226101         0.417378         3.501461
 H        -0.194829         1.444236         3.987410
 H        -0.645694        -1.022295         2.376836
 H        -2.334532         0.746951         1.445989
 H        -0.864472        -0.463346        -0.228866
 H        -0.330811         1.241945        -0.745258
 H         1.953231        -0.523533        -0.128565
 H        -0.740944         3.064801         0.892186
 H        -1.083922         2.735232         2.636436
