19
Iteration:   735
 O         1.793373         2.675858         1.766640
 C         0.672628         1.825671         1.818900
 C         0.487603         0.941562         3.081111
 C        -0.339054         0.069696         2.119488
 C        -1.385837         0.937513         1.378319
 C        -0.514842         0.508869        -0.010252
 C         0.656233         0.491043         1.016039
 O         1.874171        -0.183613         0.929689
 C        -0.940105         2.283512         1.792592
 H         2.040777         3.059240         0.915355
 H         1.322575         0.354154         3.449197
 H         0.182451         1.433738         4.033137
 H        -0.481410        -1.008533         2.434509
 H        -2.663597         0.762725         1.436665
 H        -0.970344        -0.399044        -0.412421
 H        -0.594488         1.331298        -0.690313
 H         2.114075        -0.388381         0.014398
 H        -1.247354         3.131025         1.059321
 H        -1.429673         2.544317         2.786930
