19
Iteration:  1093charge 0 multiplicity 1
 O         1.808010         2.708987         2.135195
 C         0.685875         1.861037         1.860960
 C         0.367528         1.054028         3.142133
 C        -0.252364         0.063756         2.237952
 C        -1.335629         0.905673         1.363437
 C        -0.655217         0.382566         0.101887
 C         0.637260         0.470761         0.917301
 O         1.763702        -0.258880         0.580126
 C        -0.744925         2.333879         1.510213
 H         1.809973         3.486103         1.537353
 H         1.313061         0.619090         3.562821
 H        -0.387987         1.543831         3.856419
 H        -0.314213        -1.100528         2.300900
 H        -2.429276         0.673886         1.684602
 H        -0.617094        -0.729556         0.055734
 H        -0.711350         0.795617        -0.925332
 H         2.496105         0.348240         0.337191
 H        -1.082134         2.870526         0.590190
 H        -1.068185         2.817366         2.467949
