19
Iteration:  2136charge 0 multiplicity 1
 O         1.746984         2.864819         1.850735
 C         0.685689         1.910654         1.931970
 C         0.448950         0.988269         3.169224
 C        -0.347398         0.045973         2.199235
 C        -1.362752         0.954420         1.250939
 C        -0.581043         0.359117         0.050901
 C         0.661802         0.468387         1.045052
 O         1.807703        -0.328854         0.743880
 C        -0.756629         2.245166         1.589869
 H         1.368805         3.680377         1.468047
 H         1.328948         0.314033         3.576032
 H        -0.107637         1.489049         4.026538
 H        -0.498255        -1.060112         2.486408
 H        -2.398538         0.794397         1.358120
 H        -0.900030        -0.715559        -0.046436
 H        -0.548213         0.742938        -0.942398
 H         2.593697         0.149451         1.091234
 H        -0.831185         3.015454         0.716287
 H        -1.277666         2.739888         2.418988
