19
Iteration:  1855charge 0 multiplicity 1
 O         1.760071         2.593656         1.958433
 C         0.595857         1.855618         1.845605
 C         0.346023         0.981248         3.194312
 C        -0.316194        -0.007130         2.263812
 C        -1.314674         0.858199         1.432852
 C        -0.641243         0.381312         0.158763
 C         0.589887         0.507136         1.028874
 O         1.954040         0.033966         0.671766
 C        -0.717561         2.355267         1.400274
 H         2.222665         2.911942         1.173306
 H         1.408878         0.778678         3.480021
 H        -0.151840         1.385619         4.039401
 H        -0.667798        -1.089741         2.334761
 H        -2.373599         0.649256         1.628331
 H        -0.856106        -0.612175        -0.013961
 H        -0.715154         1.033483        -0.666594
 H         1.705562        -0.823292         0.281460
 H        -0.652679         2.765486         0.385871
 H        -1.259662         3.176411         1.905102
