19
Iteration:  3377charge 0 multiplicity 1
 O         1.705577         2.731975         1.630570
 C         0.605582         1.833412         1.901828
 C         0.509786         0.961177         3.200468
 C        -0.389354         0.095905         2.265306
 C        -1.327969         0.904552         1.349940
 C        -0.483897         0.441833         0.070352
 C         0.604556         0.352729         1.073918
 O         1.817531        -0.255710         0.904082
 C        -0.779139         2.407077         1.523066
 H         1.514652         3.467360         1.015844
 H         1.403608         0.325106         3.350739
 H         0.145087         1.365522         4.112842
 H        -0.661116        -0.959840         2.271917
 H        -2.418147         0.645140         1.261953
 H        -0.814080        -0.495248        -0.353603
 H        -0.452048         1.200654        -0.673280
 H         2.503473         0.392888         1.362991
 H        -0.591618         2.984091         0.611926
 H        -1.290733         2.877562         2.383423
