19
Iteration:  1978charge 0 multiplicity 1
 O         1.719143         2.798157         1.855571
 C         0.623504         1.884604         1.956312
 C         0.376736         1.002838         3.124703
 C        -0.296326         0.078673         2.218635
 C        -1.305619         0.917369         1.248225
 C        -0.553345         0.411757         0.045096
 C         0.675878         0.362960         1.063743
 O         1.893061        -0.214278         0.679049
 C        -0.796635         2.357398         1.686645
 H         1.797447         3.098011         0.929897
 H         1.295561         0.549504         3.441795
 H        -0.259045         1.448882         3.906811
 H        -0.560111        -0.947777         2.494810
 H        -2.477633         0.748206         1.499778
 H        -0.907942        -0.555315        -0.054866
 H        -0.399130         0.896816        -0.895482
 H         1.894531        -1.083499         1.001213
 H        -0.832108         3.161393         0.893613
 H        -1.443556         2.553459         2.622475
