19
Iteration:  3479
 O         1.801870         2.762142         1.769451
 C         0.690824         1.847189         1.876750
 C         0.384872         1.086281         3.230941
 C        -0.376675         0.060146         2.306265
 C        -1.298707         0.888420         1.328921
 C        -0.577191         0.388922         0.078816
 C         0.569262         0.408255         0.979838
 O         1.877524        -0.269526         0.760068
 C        -0.732219         2.290961         1.562664
 H         1.560764         3.430522         1.110253
 H         1.229105         0.674558         3.774117
 H        -0.194161         1.683859         3.860122
 H        -0.707512        -0.930006         2.639083
 H        -2.411593         0.614368         1.370868
 H        -1.001129        -0.641083        -0.052491
 H        -0.671422         0.859146        -0.923044
 H         2.416836         0.515181         1.010383
 H        -1.027543         2.789653         0.607055
 H        -1.388928         2.863431         2.276386
