19
Iteration:  1648charge 0 multiplicity 1
 O         1.669847         2.743249         1.774898
 C         0.694856         1.780324         1.867223
 C         0.580692         0.911705         3.082864
 C        -0.450973         0.036997         2.196099
 C        -1.362098         0.906573         1.324636
 C        -0.515254         0.606963         0.054471
 C         0.597715         0.447700         1.042370
 O         1.829875        -0.119529         0.921025
 C        -0.768812         2.266663         1.670006
 H         1.671449         3.027874         0.835499
 H         1.359540         0.150496         3.202397
 H         0.326761         1.366075         4.048741
 H        -0.613634        -1.047881         2.262319
 H        -2.300951         0.668504         1.089543
 H        -0.625774        -0.395741        -0.404688
 H        -0.244285         1.462562        -0.652638
 H         1.772215        -1.024463         0.697186
 H        -0.896901         2.978617         0.935414
 H        -1.173797         2.750394         2.525261
