19
Iteration:  2544charge 0 multiplicity 1
 O         1.745050         2.474900         1.567205
 C         0.579174         1.780350         1.853017
 C         0.520249         1.035775         3.187876
 C        -0.364741        -0.020642         2.271482
 C        -1.383986         0.869429         1.326285
 C        -0.546993         0.478958         0.143012
 C         0.617768         0.469177         1.049686
 O         1.870040         0.017990         0.982460
 C        -0.810537         2.304358         1.488707
 H         1.674993         3.432834         1.551537
 H         1.356340         0.409993         3.412679
 H         0.239916         1.609321         4.094748
 H        -0.587391        -0.992810         2.590186
 H        -2.469802         0.711179         1.332928
 H        -0.693549        -0.491672        -0.386289
 H        -0.592535         1.190648        -0.784044
 H         2.445495         0.691112         1.250332
 H        -0.732400         2.929316         0.598735
 H        -1.229283         2.994141         2.217967
