19
Iteration:   892
 O         1.629332         2.767329         1.674293
 C         0.624881         1.758451         1.904067
 C         0.517379         0.891401         3.179902
 C        -0.350539         0.024350         2.174163
 C        -1.371537         0.962780         1.281315
 C        -0.450326         0.594399         0.021088
 C         0.597660         0.452657         1.092728
 O         1.895780        -0.139347         0.777396
 C        -0.858725         2.304263         1.762030
 H         2.496997         2.335787         1.497511
 H         1.373171         0.250259         3.381706
 H         0.201411         1.349959         4.068949
 H        -0.793958        -0.922321         2.339292
 H        -2.396010         0.771479         1.315183
 H        -0.640476        -0.330115        -0.483568
 H        -0.218118         1.353248        -0.647228
 H         1.814396        -1.053888         1.107244
 H        -1.016465         3.027267         1.007986
 H        -1.147015         2.713249         2.712156
