19
Iteration:  3170
 O         1.786478         2.787762         1.852121
 C         0.696778         1.818907         1.805774
 C         0.415600         1.016640         3.137604
 C        -0.286035         0.101821         2.187113
 C        -1.360791         0.914871         1.313800
 C        -0.710876         0.317548         0.119076
 C         0.591801         0.456220         1.080345
 O         1.863457        -0.224485         0.890021
 C        -0.717868         2.306776         1.519498
 H         1.783617         3.353902         1.055289
 H         1.265857         0.383267         3.526396
 H        -0.310310         1.491369         3.793635
 H        -0.481713        -0.970771         2.380153
 H        -2.385391         0.728468         1.543941
 H        -0.797008        -0.773634         0.020109
 H        -0.762832         0.774758        -0.960783
 H         2.444977         0.651317         0.637307
 H        -0.775809         2.658495         0.515384
 H        -1.333302         2.886381         2.181187
