19
Iteration:  2816
 O         1.622968         2.845747         1.675963
 C         0.633792         1.874190         1.875320
 C         0.429817         1.044571         3.231484
 C        -0.333245         0.084879         2.280860
 C        -1.285699         0.926943         1.232403
 C        -0.424340         0.362612         0.068404
 C         0.580625         0.456568         1.100232
 O         1.829605        -0.283224         0.874757
 C        -0.768656         2.300198         1.581520
 H         2.421816         2.272552         1.629952
 H         1.324514         0.581638         3.655989
 H         0.021038         1.513759         4.158451
 H        -0.762805        -0.882812         2.464860
 H        -2.441964         0.687147         1.244566
 H        -0.831980        -0.601314        -0.116916
 H        -0.302996         0.820230        -0.872062
 H         2.110793        -0.262374        -0.122110
 H        -0.874395         3.015523         0.750870
 H        -1.310288         2.654855         2.470774
