19
Iteration:  1418charge 0 multiplicity 1
 O         1.754922         2.685031         1.962561
 C         0.670098         1.801944         1.964199
 C         0.464913         0.972669         3.242503
 C        -0.395152         0.109990         2.323250
 C        -1.333345         0.937425         1.331356
 C        -0.653695         0.343979         0.048125
 C         0.617355         0.386730         1.039554
 O         1.846852        -0.013756         0.623991
 C        -0.674165         2.286621         1.356650
 H         1.516408         3.621887         2.059779
 H         1.349636         0.342348         3.390820
 H         0.122947         1.551839         4.142166
 H        -0.797239        -0.921291         2.640096
 H        -2.355441         0.991897         1.436692
 H        -0.674769        -0.705186        -0.113947
 H        -0.562915         0.910008        -0.855116
 H         1.841709        -0.926867         0.352576
 H        -0.554323         2.785509         0.401206
 H        -1.276600         2.932375         2.010926
