19
Iteration:  2409charge 0 multiplicity 1
 O         1.746784         2.725353         1.653648
 C         0.642120         1.838271         1.945447
 C         0.346706         0.964063         3.224161
 C        -0.324669         0.025900         2.208581
 C        -1.301615         0.872157         1.378360
 C        -0.501238         0.445428         0.110103
 C         0.637520         0.475365         1.062529
 O         1.819881        -0.201802         0.899549
 C        -0.775403         2.329234         1.493837
 H         1.433698         2.981387         0.759493
 H         1.265903         0.717214         3.802811
 H        -0.299696         1.380947         3.980233
 H        -0.592074        -1.033355         2.463948
 H        -2.379198         0.719738         1.468670
 H        -0.789903        -0.567977        -0.327791
 H        -0.344304         1.203585        -0.802575
 H         2.475893         0.328368         0.507246
 H        -0.738177         2.863239         0.536798
 H        -1.192118         3.010829         2.207107
