19
Iteration:  4116
 O         1.672292         2.466543         1.537746
 C         0.521146         1.763941         1.865159
 C         0.334432         1.171838         3.166143
 C        -0.275356         0.085101         2.338060
 C        -1.285639         0.943535         1.343407
 C        -0.564741         0.404895         0.024155
 C         0.693395         0.376727         1.133060
 O         1.940297        -0.068375         0.911125
 C        -0.807458         2.298721         1.498645
 H         2.084643         2.684740         2.380355
 H         1.312760         0.807167         3.585096
 H        -0.275087         1.622748         3.896612
 H        -0.632878        -0.782042         2.751691
 H        -2.380871         0.885776         1.364306
 H        -0.783424        -0.604164        -0.193421
 H        -0.391877         1.128146        -0.839236
 H         2.414021         0.887382         1.018671
 H        -0.845340         2.962088         0.613193
 H        -1.108205         2.878241         2.322769
