19
Iteration:  1054
 O         1.651929         2.751713         1.754384
 C         0.653189         1.762573         1.901002
 C         0.483584         0.869693         3.226313
 C        -0.388601         0.015847         2.260169
 C        -1.352393         0.937255         1.317686
 C        -0.424416         0.615793         0.013707
 C         0.594978         0.403185         1.106728
 O         1.801653        -0.213816         0.674514
 C        -0.759654         2.301254         1.635866
 H         1.508881         3.290833         0.962985
 H         1.348336         0.356610         3.523411
 H         0.168740         1.323193         4.153118
 H        -0.591482        -0.946255         2.500566
 H        -2.369357         0.768684         1.314043
 H        -0.865751        -0.291930        -0.350925
 H        -0.309154         1.436756        -0.718325
 H         2.449031         0.164080         1.246951
 H        -0.598266         3.098118         0.908204
 H        -1.098129         2.710205         2.570731
