19
Iteration:  4457charge 0 multiplicity 1
 O         1.768249         2.664498         1.502099
 C         0.645838         1.796667         1.727480
 C         0.405200         1.127712         3.172775
 C        -0.383054         0.082237         2.277847
 C        -1.352765         0.848807         1.322927
 C        -0.569270         0.320952         0.078829
 C         0.620844         0.386907         1.100615
 O         1.923959        -0.124347         1.105596
 C        -0.798006         2.319234         1.526034
 H         1.791811         3.433838         2.072724
 H         1.283964         0.530977         3.484390
 H        -0.192294         1.656323         3.931261
 H        -0.836868        -0.863019         2.695814
 H        -2.367635         0.541691         1.452638
 H        -0.979008        -0.487190        -0.420458
 H        -0.431164         1.000671        -0.786701
 H         2.392046         0.674711         0.835120
 H        -0.847671         2.884089         0.572671
 H        -1.123285         2.777507         2.473374
