19
Iteration:  3362
 O         1.706672         2.753597         1.717712
 C         0.695701         1.799614         1.843543
 C         0.573393         0.960223         3.139377
 C        -0.401380         0.044948         2.290591
 C        -1.417719         0.950469         1.250425
 C        -0.506506         0.482878         0.030662
 C         0.594592         0.456561         1.135211
 O         1.785383        -0.260779         0.936662
 C        -0.772159         2.258950         1.525974
 H         1.209263         3.420194         1.188143
 H         1.553323         0.460823         3.216523
 H         0.296200         1.555490         4.165839
 H        -0.671919        -0.862330         2.871742
 H        -2.461753         0.991333         1.408330
 H        -0.665467        -0.571658        -0.231331
 H        -0.203180         1.058567        -0.880372
 H         2.539999         0.314424         0.965319
 H        -0.964193         2.660158         0.520214
 H        -1.114355         3.026381         2.234927
