19
Iteration:  2091
 O         1.607665         2.792185         1.732393
 C         0.651241         1.790152         1.846911
 C         0.540093         0.897367         3.179795
 C        -0.285925         0.075183         2.228195
 C        -1.360778         0.880924         1.305658
 C        -0.486281         0.691927         0.028032
 C         0.631124         0.400286         1.041448
 O         1.827484        -0.356031         1.013025
 C        -0.800504         2.276169         1.580617
 H         1.264801         3.292981         0.963669
 H         1.613876         0.604164         3.294664
 H        -0.031378         1.302032         4.079288
 H        -0.575628        -1.011020         2.416211
 H        -2.431735         0.817049         1.228568
 H        -0.684052        -0.051947        -0.738297
 H        -0.391909         1.609343        -0.499873
 H         2.260745        -0.126684         0.138846
 H        -0.832983         3.044190         0.719249
 H        -1.236787         2.777235         2.472926
