19
Iteration:   589charge 0 multiplicity 1
 O         1.711924         2.730040         1.696827
 C         0.641472         1.832757         1.927651
 C         0.552551         0.774995         3.132804
 C        -0.353684         0.027750         2.141603
 C        -1.374543         0.992418         1.280110
 C        -0.523214         0.543197         0.012288
 C         0.612885         0.444693         1.028148
 O         1.837733        -0.174774         0.915244
 C        -0.836569         2.335792         1.764435
 H         1.674025         3.309441         0.901583
 H         1.379001         0.054286         3.265095
 H         0.152902         0.992481         4.105149
 H        -0.689482        -0.960394         2.300179
 H        -2.444567         0.832750         1.512465
 H        -0.903171        -0.419395        -0.146814
 H        -0.376364         1.120038        -0.876103
 H         2.454840         0.349189         0.465437
 H        -0.903215         3.158880         1.027421
 H        -1.180058         2.649190         2.727313
