19
Iteration:  4177charge 0 multiplicity 1
 O         1.631435         2.755978         1.666650
 C         0.637140         1.789861         1.867065
 C         0.480460         1.163320         3.175187
 C        -0.299795         0.154850         2.287458
 C        -1.338421         0.974028         1.300779
 C        -0.541168         0.391799         0.054061
 C         0.593347         0.367491         1.085468
 O         1.938761        -0.372283         0.889168
 C        -0.855167         2.305327         1.449529
 H         1.868761         3.358126         2.369024
 H         1.261458         0.558214         3.565825
 H        -0.145088         1.673046         3.988119
 H        -0.503658        -0.940056         2.578976
 H        -2.380022         0.820583         1.385276
 H        -0.967633        -0.638742        -0.054907
 H        -0.572399         0.758705        -0.967296
 H         2.773664         0.030447         1.147265
 H        -0.890517         2.969708         0.578136
 H        -1.100212         2.895316         2.388463
