19
Iteration:  1492charge 0 multiplicity 1
 O         1.602542         2.763352         1.636311
 C         0.600629         1.743780         1.908635
 C         0.510054         0.893472         3.147371
 C        -0.425870         0.010548         2.245666
 C        -1.347556         1.010272         1.285441
 C        -0.367529         0.633735         0.050243
 C         0.652268         0.406069         1.163859
 O         1.843930        -0.215328         0.946615
 C        -0.743170         2.277974         1.600643
 H         1.750944         2.696971         0.655427
 H         1.534145         0.510500         3.433836
 H         0.088062         1.324712         4.069870
 H        -0.810300        -1.042287         2.426883
 H        -2.424318         0.731737         1.429275
 H        -0.724075        -0.357341        -0.379443
 H        -0.118944         1.630023        -0.582064
 H         1.858885        -0.281090        -0.054954
 H        -0.948033         3.050095         0.910548
 H        -1.310278         2.649157         2.466797
