19
Iteration:  3990charge 0 multiplicity 1
 O         1.735398         2.594726         1.467941
 C         0.595194         1.828417         1.853269
 C         0.387004         1.013243         3.192876
 C        -0.344452         0.046599         2.246903
 C        -1.315301         0.904987         1.307355
 C        -0.452202         0.418050         0.120793
 C         0.653887         0.429616         1.111191
 O         1.867883        -0.169950         1.011794
 C        -0.827408         2.381735         1.583317
 H         1.521104         3.467557         1.820801
 H         1.356999         0.601901         3.495510
 H        -0.058479         1.530172         4.054386
 H        -0.577169        -1.020204         2.462861
 H        -2.369286         0.654915         1.445311
 H        -0.832016        -0.466669        -0.377116
 H        -0.538471         1.081483        -0.681636
 H         2.421496         0.592232         0.599601
 H        -0.827767         2.984352         0.655335
 H        -1.519436         2.885422         2.374102
