19
Iteration:  4639
 O         1.615178         2.898513         1.645276
 C         0.683275         1.890802         1.897858
 C         0.444970         1.187493         3.185538
 C        -0.286162         0.098898         2.292225
 C        -1.345020         0.846839         1.272835
 C        -0.502294         0.232185         0.087124
 C         0.633833         0.446899         1.112162
 O         1.745538        -0.326278         1.006064
 C        -0.734592         2.285980         1.430372
 H         2.429234         2.789647         2.173401
 H         1.300768         0.539568         3.351958
 H         0.002218         1.826202         3.859182
 H        -0.393382        -0.933115         2.575756
 H        -2.414091         0.672489         1.162541
 H        -0.766786        -0.826644        -0.192758
 H        -0.460808         0.710598        -0.914760
 H         2.244327        -0.020691         0.146875
 H        -0.562118         2.773288         0.439415
 H        -1.302970         2.838970         2.163148
