19
Iteration:  1867
 O         1.840170         2.517530         1.978872
 C         0.627097         1.852456         1.872898
 C         0.358116         1.047254         3.222177
 C        -0.266357         0.079054         2.214136
 C        -1.361761         0.834856         1.444670
 C        -0.567108         0.388427         0.140364
 C         0.651150         0.400823         1.066908
 O         1.825237         0.105621         0.652784
 C        -0.821440         2.366685         1.373872
 H         1.910240         2.868765         1.073194
 H         1.304964         0.503268         3.565578
 H        -0.188489         1.475210         4.018329
 H        -0.468924        -0.953819         2.645253
 H        -2.504050         0.641572         1.461538
 H        -0.815964        -0.522473        -0.255770
 H        -0.520466         0.995910        -0.735033
 H         2.008516        -0.821159         0.239429
 H        -0.868830         2.537970         0.311031
 H        -1.348329         3.069717         2.075513
