19
Iteration:   270
 O         1.643804         2.798992         1.848022
 C         0.658700         1.771055         1.873734
 C         0.518799         0.848180         3.143383
 C        -0.341165         0.074742         2.153166
 C        -1.298237         0.972733         1.261210
 C        -0.486936         0.608424        -0.032298
 C         0.594713         0.377922         0.995616
 O         1.853046        -0.264721         0.781258
 C        -0.839257         2.274597         1.753695
 H         1.692217         3.480546         1.138117
 H         1.390022         0.178687         3.382951
 H         0.158543         1.313267         4.117559
 H        -0.728039        -0.991342         2.304799
 H        -2.406602         0.775833         1.380331
 H        -0.831437        -0.404881        -0.412338
 H        -0.407662         1.431987        -0.742692
 H         2.412694         0.165142         1.444169
 H        -0.991232         3.239613         1.271456
 H        -1.331625         2.516218         2.774973
