19
Iteration:   580
 O         1.840072         2.716122         1.645096
 C         0.605691         1.789356         1.923860
 C         0.506605         0.773078         3.172215
 C        -0.336347         0.045552         2.104795
 C        -1.371891         0.990130         1.317688
 C        -0.529653         0.562535         0.037542
 C         0.607290         0.503320         1.014559
 O         1.836803        -0.169816         0.935523
 C        -0.879355         2.304491         1.794839
 H         1.356484         3.266292         0.972787
 H         1.459620         0.168932         3.290952
 H         0.072360         1.135885         4.073261
 H        -0.611336        -0.922375         2.156994
 H        -2.535559         0.612415         1.231423
 H        -0.735466        -0.409626        -0.311053
 H        -0.526301         1.101448        -0.867199
 H         2.501190         0.316510         0.514621
 H        -1.099399         3.150194         1.051540
 H        -1.348145         2.608094         2.732708
