19
Iteration:  3695charge 0 multiplicity 1
 O         1.682230         2.791072         1.473319
 C         0.554362         1.856841         1.845745
 C         0.367969         1.044513         3.167204
 C        -0.356886         0.057502         2.204753
 C        -1.287906         0.930173         1.325163
 C        -0.429500         0.414625         0.077482
 C         0.695329         0.454103         1.036994
 O         1.868877        -0.381816         0.962574
 C        -0.828774         2.376976         1.722378
 H         1.904558         3.243974         2.327302
 H         1.257168         0.414958         3.461909
 H        -0.170499         1.278947         4.059725
 H        -0.681690        -0.915186         2.398754
 H        -2.388567         0.695412         1.416747
 H        -0.847604        -0.578077        -0.149052
 H        -0.280589         1.176596        -0.720074
 H         2.654578         0.053327         0.532107
 H        -1.000695         3.101991         0.998821
 H        -1.254463         2.749980         2.647660
