19
Iteration:   515
 O         1.787008         2.682808         1.808205
 C         0.675620         1.797698         1.955879
 C         0.369764         0.885666         3.221427
 C        -0.378527         0.119764         2.238663
 C        -1.360673         0.925277         1.325345
 C        -0.573645         0.330271         0.143965
 C         0.569951         0.470446         1.009322
 O         1.853869        -0.010627         0.546205
 C        -0.729785         2.274842         1.590073
 H         2.174281         2.669624         2.694390
 H         1.358881         0.402078         3.403535
 H        -0.079179         1.256614         4.125722
 H        -0.697053        -0.805026         2.477992
 H        -2.565035         0.963605         1.307768
 H        -0.781888        -0.741724         0.040195
 H        -0.583496         0.759616        -0.889442
 H         2.465503         0.697215         0.824025
 H        -0.607248         2.929493         0.649736
 H        -1.226775         2.858387         2.382742
