19
Iteration:    29charge 0 multiplicity 1
 O         1.825760         2.590940         1.829832
 C         0.664930         1.780730         1.856282
 C         0.436990         0.980979         3.221491
 C        -0.390639         0.011244         2.294088
 C        -1.323422         0.837759         1.367884
 C        -0.552802         0.510602         0.075021
 C         0.595510         0.417274         1.022659
 O         1.837832         0.073574         0.628020
 C        -0.868341         2.291596         1.491605
 H         2.274437         2.422083         2.658025
 H         1.354584         0.415128         3.596027
 H        -0.060982         1.616416         3.988760
 H        -0.697993        -1.000461         2.744340
 H        -2.530108         0.737382         1.342655
 H        -0.870701        -0.493049        -0.398289
 H        -0.583905         1.246362        -0.750363
 H         2.593909         0.298731         1.165156
 H        -0.928685         2.748011         0.489756
 H        -1.328254         2.808532         2.393264
