19
Iteration:  1177
 O         1.797200         2.622443         1.544975
 C         0.579083         1.881980         1.888816
 C         0.475073         0.904376         3.194280
 C        -0.351295         0.036822         2.254689
 C        -1.337859         0.897742         1.253080
 C        -0.445362         0.655148        -0.001305
 C         0.607977         0.448458         1.050679
 O         1.846110        -0.214066         0.833548
 C        -0.918800         2.272957         1.836741
 H         1.605506         3.509758         1.201116
 H         1.469169         0.406598         3.583641
 H        -0.025977         1.397995         4.050907
 H        -0.622632        -1.175785         2.374904
 H        -2.430680         0.499633         1.376341
 H        -0.761789        -0.155950        -0.725586
 H        -0.347581         1.539764        -0.647369
 H         2.643900         0.082960         1.404761
 H        -1.145331         3.158104         1.231061
 H        -1.395510         2.416659         2.875811
