19
Iteration:  2941charge 0 multiplicity 1
 O         1.732091         2.709348         1.813599
 C         0.648558         1.907431         1.875521
 C         0.417407         1.014920         3.163379
 C        -0.314419         0.097024         2.198817
 C        -1.298195         0.858972         1.340209
 C        -0.654526         0.349305         0.121846
 C         0.625123         0.461229         1.044707
 O         1.825385        -0.207969         0.787467
 C        -0.737527         2.318939         1.517399
 H         2.010397         3.076792         0.974309
 H         1.346604         0.573533         3.593981
 H        -0.280273         1.516036         3.815601
 H        -0.600949        -0.977275         2.439276
 H        -2.313763         0.771174         1.506423
 H        -0.809203        -0.700447        -0.084599
 H        -0.578332         0.962035        -0.737244
 H         2.550763         0.173394         1.266747
 H        -0.660709         3.005036         0.668070
 H        -1.237754         2.871643         2.313658
