19
Iteration:   552charge 0 multiplicity 1
 O         1.786201         2.528870         1.660419
 C         0.580553         1.793323         1.862139
 C         0.429091         0.935181         3.192941
 C        -0.254347         0.035103         2.181003
 C        -1.362530         0.881036         1.400876
 C        -0.567551         0.671484         0.012278
 C         0.594667         0.455923         1.045878
 O         1.841737        -0.099139         0.804349
 C        -0.775831         2.236660         1.689635
 H         1.603343         3.478961         1.822449
 H         1.307487         0.431787         3.638413
 H        -0.225004         1.438038         3.984819
 H        -0.520181        -1.095467         2.512941
 H        -2.377686         0.599892         1.411769
 H        -0.813541        -0.297063        -0.602141
 H        -0.430339         1.610598        -0.683950
 H         2.461258         0.611239         0.913819
 H        -0.948356         2.903372         0.874315
 H        -1.243784         2.717271         2.583180
