19
Iteration:  3833charge 0 multiplicity 1
 O         1.641234         2.836056         1.582855
 C         0.650281         1.818435         1.854139
 C         0.425256         1.097667         3.169095
 C        -0.326139         0.070642         2.210503
 C        -1.284101         0.931187         1.293837
 C        -0.495660         0.435856         0.052250
 C         0.575308         0.364745         1.106105
 O         1.862516        -0.266862         1.011860
 C        -0.766178         2.240732         1.617050
 H         2.499615         2.415695         1.676232
 H         1.358518         0.717150         3.633490
 H        -0.240623         1.494860         3.970133
 H        -0.701043        -0.950205         2.432317
 H        -2.375875         0.810232         1.161951
 H        -0.918108        -0.497016        -0.298004
 H        -0.315153         1.205262        -0.629600
 H         2.176977        -0.135172         0.119944
 H        -1.027397         2.993564         0.798924
 H        -1.277715         2.719693         2.501936
