19
Iteration:  1398
 O         1.790550         2.716363         1.925260
 C         0.717332         1.772308         1.936235
 C         0.284712         0.992703         3.214853
 C        -0.367757         0.016411         2.262641
 C        -1.355020         0.929229         1.360361
 C        -0.591658         0.322784         0.169385
 C         0.628518         0.410287         1.074689
 O         1.880839        -0.030268         0.489980
 C        -0.649091         2.379834         1.458945
 H         1.362183         3.573954         1.907217
 H         1.145254         0.656273         3.722076
 H        -0.439407         1.405098         3.947523
 H        -0.715375        -1.033450         2.302685
 H        -2.359863         0.774692         1.413795
 H        -0.899584        -0.675924         0.198303
 H        -0.637764         0.776234        -0.718391
 H         1.829900        -1.017615         0.796041
 H        -0.431128         2.877430         0.480394
 H        -1.004589         3.198876         2.091579
