19
Iteration:  3941charge 0 multiplicity 1
 O         1.786045         2.566444         1.627759
 C         0.582061         1.906005         1.848067
 C         0.384492         1.041178         3.199124
 C        -0.313336         0.084823         2.251402
 C        -1.357989         0.895893         1.350024
 C        -0.481831         0.292574         0.133234
 C         0.582525         0.436122         1.129289
 O         1.822992        -0.087745         0.818076
 C        -0.753231         2.371501         1.461876
 H         2.006803         3.154603         2.370626
 H         1.359222         0.688255         3.590048
 H        -0.249334         1.520202         3.984050
 H        -0.636928        -0.927364         2.605158
 H        -2.452652         0.762934         1.439229
 H        -0.740005        -0.776124         0.021703
 H        -0.406793         0.630804        -0.938739
 H         2.398824         0.620078         1.154880
 H        -0.936325         2.790644         0.448637
 H        -1.213372         2.926288         2.220370
