19
Iteration:  2449charge 0 multiplicity 1
 O         1.671502         2.913944         1.988381
 C         0.633876         1.977384         1.846414
 C         0.588724         1.092677         3.094075
 C        -0.261147         0.124386         2.264438
 C        -1.347737         0.879461         1.287720
 C        -0.554451         0.294254         0.034903
 C         0.575363         0.271319         0.973421
 O         1.767607        -0.417589         0.850133
 C        -0.755652         2.302991         1.474800
 H         1.601543         3.785792         1.567378
 H         1.532573         0.552324         3.238589
 H         0.338515         1.696065         4.025902
 H        -0.982574        -0.724145         2.699385
 H        -2.397779         0.704721         1.333459
 H        -0.857834        -0.672177        -0.247963
 H        -0.430344         0.814930        -0.849255
 H         2.571550         0.200182         0.642675
 H        -1.021284         2.971203         0.649168
 H        -1.343181         2.801460         2.337095
