19
Iteration:  4112
 O         1.676063         2.492191         1.551934
 C         0.544238         1.781487         1.832015
 C         0.331974         1.150253         3.168885
 C        -0.289733         0.083718         2.332165
 C        -1.290311         0.921334         1.351792
 C        -0.523314         0.425509         0.054266
 C         0.660186         0.357891         1.131697
 O         1.924755        -0.063479         0.892789
 C        -0.773805         2.301407         1.485399
 H         2.097017         2.735601         2.400890
 H         1.250224         0.914717         3.650758
 H        -0.330793         1.718864         3.899536
 H        -0.606327        -0.910474         2.847322
 H        -2.350760         0.834539         1.402746
 H        -0.898712        -0.605576        -0.271507
 H        -0.374936         0.918636        -0.933225
 H         2.385248         0.761390         1.044502
 H        -0.914128         3.013170         0.636058
 H        -1.194058         2.880362         2.436683
