19
Iteration:  3650charge 0 multiplicity 1
 O         1.783866         2.577462         1.682410
 C         0.673479         1.848745         1.869356
 C         0.413656         1.010562         3.156322
 C        -0.403674         0.119558         2.283826
 C        -1.412442         0.874984         1.395810
 C        -0.556289         0.388419         0.062687
 C         0.604888         0.410897         1.096736
 O         1.853549        -0.081642         0.872320
 C        -0.759307         2.284333         1.436748
 H         1.668852         3.453987         2.103902
 H         1.396328         0.471118         3.428119
 H         0.259612         1.583103         4.076627
 H        -0.425131        -0.937803         2.367434
 H        -2.522013         0.793160         1.601037
 H        -0.611361        -0.699419        -0.185265
 H        -0.529897         1.163128        -0.766525
 H         2.489695         0.657074         0.753167
 H        -0.845421         2.755104         0.467849
 H        -1.220044         2.958671         2.173445
