19
Iteration:  3759
 O         1.714182         2.753204         1.802918
 C         0.651579         1.831996         1.771659
 C         0.382250         1.082189         3.181661
 C        -0.357629         0.117358         2.205435
 C        -1.394047         0.953620         1.327468
 C        -0.660819         0.264033         0.190893
 C         0.684605         0.425043         1.026047
 O         1.958130        -0.170286         0.871465
 C        -0.778672         2.298904         1.451008
 H         2.501363         2.175362         1.954719
 H         1.297231         0.533136         3.589094
 H        -0.135112         1.667167         3.933486
 H        -0.506872        -0.899114         2.398094
 H        -2.489870         0.861442         1.537934
 H        -0.958612        -0.843645         0.193657
 H        -0.735820         0.641583        -0.941129
 H         2.598222         0.316933         0.403313
 H        -0.807640         2.966943         0.565203
 H        -1.262451         2.971020         2.241554
