19
Iteration:  4530
 O         1.669533         2.785667         1.685654
 C         0.611121         1.867824         1.773861
 C         0.415832         1.188654         3.092661
 C        -0.297355         0.144803         2.312980
 C        -1.326893         0.874184         1.341369
 C        -0.569425         0.300955         0.166216
 C         0.652823         0.274300         1.120212
 O         1.884576        -0.316575         0.890963
 C        -0.730971         2.349999         1.405464
 H         1.750687         3.207036         2.569154
 H         1.282280         0.817184         3.761471
 H        -0.220105         1.713694         3.873775
 H        -0.433578        -0.907556         2.589626
 H        -2.481244         0.683383         1.475497
 H        -0.983938        -0.687881        -0.312652
 H        -0.605232         0.701918        -0.906135
 H         2.540068         0.450423         1.070739
 H        -0.951965         2.924855         0.409682
 H        -1.235506         2.965999         2.198459
