19
Iteration:  2537
 O         1.744745         2.448894         1.606319
 C         0.598119         1.817919         1.877088
 C         0.471775         1.012867         3.168303
 C        -0.336583         0.067918         2.295378
 C        -1.342098         0.890611         1.335753
 C        -0.529441         0.487707         0.122060
 C         0.584021         0.488430         1.096051
 O         1.890121        -0.031068         0.953817
 C        -0.853392         2.291637         1.440981
 H         1.505296         3.356546         1.373097
 H         1.395385         0.367101         3.252389
 H         0.313608         1.614926         4.114243
 H        -0.542468        -1.088987         2.596789
 H        -2.369234         0.618925         1.324533
 H        -0.757943        -0.505529        -0.265886
 H        -0.463760         1.285528        -0.642682
 H         2.622506         0.631527         0.882935
 H        -0.998999         2.946165         0.535301
 H        -1.385688         2.784881         2.356574
