19
Iteration:  2690charge 0 multiplicity 1
 O         1.643170         2.637646         1.598522
 C         0.613239         1.753230         1.845194
 C         0.405749         1.049816         3.171810
 C        -0.345612         0.074785         2.325827
 C        -1.346318         0.808655         1.363029
 C        -0.485549         0.561750         0.057118
 C         0.658378         0.409495         1.106359
 O         1.961349        -0.033184         0.896712
 C        -0.841445         2.319703         1.480975
 H         2.413522         2.272577         2.101117
 H         1.346090         0.559635         3.542067
 H        -0.075353         1.685638         3.935728
 H        -0.817487        -0.939564         2.716993
 H        -2.355474         0.612864         1.534306
 H        -0.941943        -0.335903        -0.482075
 H        -0.270075         1.495904        -0.585511
 H         1.743527        -0.992782         0.679877
 H        -0.817521         2.841345         0.519187
 H        -1.211815         2.798023         2.420682
