19
Iteration:  2713charge 0 multiplicity 1
 O         1.748990         2.617976         1.615399
 C         0.615758         1.840768         1.848949
 C         0.333297         1.052934         3.239595
 C        -0.282911         0.036343         2.230042
 C        -1.394273         0.860338         1.313593
 C        -0.548640         0.403796         0.050161
 C         0.591958         0.437937         1.080620
 O         1.957759         0.026480         0.901769
 C        -0.793010         2.357396         1.587642
 H         2.364541         1.866219         1.468134
 H         1.314285         0.829634         3.756629
 H        -0.423710         1.417652         3.929115
 H        -0.599441        -1.065774         2.288508
 H        -2.430537         0.800489         1.308490
 H        -0.907579        -0.638585        -0.207885
 H        -0.528020         1.155493        -0.785822
 H         2.231454        -0.858680         1.128017
 H        -0.845274         2.893224         0.617837
 H        -1.161242         2.819297         2.527719
