19
Iteration:  2229charge 0 multiplicity 1
 O         1.702812         2.638864         1.732427
 C         0.621497         1.836284         1.869230
 C         0.442571         0.991344         3.169810
 C        -0.362869         0.030694         2.267245
 C        -1.367162         0.857375         1.311240
 C        -0.543134         0.438723         0.048033
 C         0.609785         0.383615         1.110851
 O         1.925014        -0.139643         0.865290
 C        -0.764388         2.373764         1.528169
 H         1.597422         3.275669         1.011467
 H         1.370751         0.524941         3.495387
 H        -0.084174         1.550959         3.952123
 H        -0.731097        -0.939062         2.516184
 H        -2.492988         0.662395         1.343537
 H        -0.977334        -0.453970        -0.460300
 H        -0.364262         1.305914        -0.762022
 H         2.549372         0.487421         1.132040
 H        -0.726685         3.065752         0.717643
 H        -1.233644         2.970355         2.354513
