19
Iteration:  1132
 O         1.751366         2.695993         1.932324
 C         0.667502         1.805864         1.919594
 C         0.473480         0.871705         3.201094
 C        -0.326828         0.012650         2.197510
 C        -1.363645         0.955386         1.386976
 C        -0.626978         0.418977         0.064563
 C         0.574918         0.393617         1.028618
 O         1.874861        -0.098967         0.740222
 C        -0.736143         2.372208         1.489024
 H         1.567605         3.243867         1.145031
 H         1.488182         0.403790         3.194721
 H         0.045106         1.175028         4.198331
 H        -0.763753        -0.968826         2.576395
 H        -2.464389         1.025120         1.420251
 H        -0.963770        -0.586847        -0.272710
 H        -0.577051         1.032619        -0.854188
 H         2.352560         0.649856         0.228723
 H        -0.801631         2.839265         0.482536
 H        -1.260030         3.053882         2.198652
