19
Iteration:  1800charge 0 multiplicity 1
 O         1.603870         2.776224         1.717738
 C         0.660830         1.839143         1.933501
 C         0.520653         0.930728         3.145764
 C        -0.286936         0.023964         2.173638
 C        -1.401955         0.899824         1.319860
 C        -0.445249         0.635433         0.086622
 C         0.633110         0.478394         1.026390
 O         1.861718        -0.268180         0.864921
 C        -0.861762         2.320723         1.665251
 H         2.226446         2.710890         0.973843
 H         1.516054         0.451520         3.204071
 H         0.215090         1.286416         4.103362
 H        -0.524186        -0.980169         2.622471
 H        -2.442219         0.663303         1.225867
 H        -0.709596        -0.266258        -0.356059
 H        -0.259498         1.305386        -0.713630
 H         1.573274        -1.109349         0.629751
 H        -0.914164         2.928169         0.745457
 H        -1.371979         2.741647         2.550990
