19
Iteration:  3328
 O         1.796451         2.746506         1.802348
 C         0.635784         1.884466         1.892665
 C         0.352884         1.053523         3.165787
 C        -0.261496         0.064503         2.196326
 C        -1.323137         0.927778         1.360762
 C        -0.613597         0.361817         0.031913
 C         0.688508         0.370874         1.002043
 O         1.859426        -0.332805         0.871988
 C        -0.822785         2.433126         1.565606
 H         1.678742         3.406318         1.093755
 H         1.273284         0.733097         3.697801
 H        -0.402311         1.575411         3.938682
 H        -0.610666        -0.944167         2.496139
 H        -2.378376         0.833428         1.723338
 H        -0.924953        -0.724598        -0.045703
 H        -0.426452         0.771718        -1.012359
 H         2.353071         0.147753         0.267797
 H        -1.119261         2.806870         0.578760
 H        -1.217659         3.006027         2.412369
