19
Iteration:  2461
 O         1.660541         2.945228         2.006555
 C         0.634456         1.987790         1.850421
 C         0.604412         1.048810         3.066310
 C        -0.278659         0.092479         2.293666
 C        -1.284045         0.905328         1.280513
 C        -0.546594         0.351053         0.066653
 C         0.588677         0.255416         1.103201
 O         1.719280        -0.433527         0.812904
 C        -0.820519         2.318720         1.366409
 H         1.508052         3.749120         1.448187
 H         1.637900         0.642615         3.094114
 H         0.241875         1.212666         4.110300
 H        -0.369245        -1.051432         2.703244
 H        -2.330255         0.796347         1.436637
 H        -0.825858        -0.629762        -0.170656
 H        -0.541341         1.020569        -0.704235
 H         2.437292         0.226694         0.692893
 H        -0.677931         2.739971         0.365602
 H        -1.351641         2.975940         2.110305
