19
Iteration:  3913charge 0 multiplicity 1
 O         1.764529         2.712276         1.719478
 C         0.643723         1.848353         1.926178
 C         0.330519         1.162563         3.224109
 C        -0.325687         0.131788         2.273652
 C        -1.336816         0.831601         1.320812
 C        -0.575939         0.348385         0.142934
 C         0.645593         0.426152         1.130540
 O         1.882529        -0.252944         0.709805
 C        -0.774339         2.309267         1.402012
 H         2.196198         2.840115         2.558311
 H         1.190110         0.644834         3.710224
 H        -0.240350         1.799087         3.858938
 H        -0.754000        -0.742046         2.680101
 H        -2.390200         0.598909         1.515010
 H        -0.626253        -0.752208        -0.007959
 H        -0.687597         0.869930        -0.813663
 H         2.335618         0.484260         0.346455
 H        -0.733575         2.833398         0.442798
 H        -1.339372         2.763819         2.305800
