19
Iteration:  2944charge 0 multiplicity 1
 O         1.749671         2.720483         1.815584
 C         0.614823         1.897524         1.863736
 C         0.430531         1.008261         3.169661
 C        -0.320109         0.102490         2.192579
 C        -1.301526         0.871267         1.319049
 C        -0.640312         0.335874         0.129300
 C         0.617985         0.475849         1.017408
 O         1.837112        -0.234703         0.789682
 C        -0.768273         2.337353         1.550851
 H         2.070224         3.087761         0.976281
 H         1.353077         0.563742         3.519181
 H        -0.236984         1.504314         3.874459
 H        -0.509522        -0.879939         2.527470
 H        -2.351749         0.714374         1.468334
 H        -0.818080        -0.794884        -0.026546
 H        -0.618997         1.033964        -0.765995
 H         2.626601         0.150102         1.353335
 H        -0.592339         3.012033         0.664221
 H        -1.325481         2.880232         2.328756
