19
Iteration:  3974
 O         1.759452         2.597031         1.528878
 C         0.627356         1.799116         1.839316
 C         0.440299         1.046908         3.196608
 C        -0.414285         0.110072         2.305853
 C        -1.443939         0.889152         1.354558
 C        -0.638984         0.472941         0.007062
 C         0.611181         0.377876         1.098685
 O         2.052041        -0.127716         0.993164
 C        -0.791185         2.240887         1.515252
 H         1.762391         3.479237         1.869937
 H         1.326862         0.490484         3.626061
 H        -0.105332         1.565610         4.017116
 H        -0.768359        -0.845387         2.742344
 H        -2.551539         0.814174         1.307899
 H        -0.824501        -0.599493        -0.253919
 H        -0.334386         1.225125        -0.874855
 H         2.525466         0.740825         0.909887
 H        -1.079659         2.912244         0.680611
 H        -1.029330         2.842527         2.324720
