19
Iteration:  1057charge 0 multiplicity 1
 O         1.659322         2.760674         1.771046
 C         0.648879         1.780577         1.930756
 C         0.453876         0.882409         3.234136
 C        -0.371468         0.017383         2.274314
 C        -1.326049         0.950790         1.316761
 C        -0.450317         0.620734         0.022901
 C         0.594533         0.391836         1.085398
 O         1.804588        -0.233508         0.651940
 C        -0.752143         2.287574         1.602877
 H         1.499889         3.313101         0.982426
 H         1.386070         0.380050         3.570306
 H         0.097239         1.299045         4.131003
 H        -0.557796        -1.111892         2.552482
 H        -2.408035         0.774478         1.377100
 H        -0.822419        -0.319505        -0.422104
 H        -0.363021         1.359821        -0.739856
 H         2.488617         0.190657         1.193185
 H        -0.663403         3.117295         0.934073
 H        -1.066492         2.771336         2.558394
