19
Iteration:  1119charge 0 multiplicity 1
 O         1.794745         2.661711         2.093261
 C         0.610338         1.884572         1.951002
 C         0.547434         0.963766         3.116333
 C        -0.338998         0.083079         2.258034
 C        -1.367363         0.912754         1.317261
 C        -0.669724         0.349369         0.063718
 C         0.555044         0.366745         0.971120
 O         1.836095        -0.111515         0.675014
 C        -0.753212         2.351483         1.461152
 H         1.926243         3.374968         1.431329
 H         1.467090         0.432610         3.327600
 H         0.146165         1.472146         4.121612
 H        -0.537651        -0.889547         2.366677
 H        -2.314667         0.622155         1.587510
 H        -0.888181        -0.716345        -0.038023
 H        -0.666439         0.925145        -0.918961
 H         2.223802         0.572690         0.130291
 H        -0.621051         2.820769         0.430335
 H        -1.246833         3.027015         2.132471
