19
Iteration:  4843
 O         1.665188         2.830050         1.784095
 C         0.583336         1.921572         1.881925
 C         0.459231         1.155796         3.219454
 C        -0.303871         0.107798         2.332714
 C        -1.301327         0.873217         1.319704
 C        -0.512261         0.246767         0.088440
 C         0.621179         0.349106         1.050058
 O         1.823046        -0.321737         0.834094
 C        -0.760099         2.341114         1.372989
 H         1.683221         3.070738         0.831662
 H         1.378488         0.724888         3.566790
 H        -0.161813         1.687922         4.034046
 H        -0.406907        -0.864401         2.647953
 H        -2.391494         0.816295         1.342456
 H        -0.730231        -0.796105         0.089899
 H        -0.564383         0.769945        -0.803705
 H         2.555346         0.208733         1.210085
 H        -0.673677         2.788469         0.370806
 H        -1.351479         2.903728         2.153877
