19
Iteration:  1710
 O         1.777910         2.707337         1.972580
 C         0.697303         1.773533         1.873808
 C         0.388416         1.054024         3.188985
 C        -0.322226        -0.060274         2.252817
 C        -1.357576         0.841747         1.429930
 C        -0.627649         0.428914         0.145186
 C         0.560360         0.455820         1.029370
 O         1.852141         0.048366         0.630369
 C        -0.713853         2.307813         1.393097
 H         2.606848         2.170878         2.023990
 H         1.261181         0.680255         3.622123
 H        -0.221773         1.579636         3.958198
 H        -0.682719        -1.089722         2.228122
 H        -2.407055         0.876084         1.611621
 H        -0.708448        -0.540946        -0.259104
 H        -0.648550         1.051417        -0.690534
 H         1.711339        -0.654149         0.037083
 H        -0.823212         2.708976         0.333666
 H        -1.078247         2.910130         2.249724
