19
Iteration:   298charge 0 multiplicity 1
 O         1.765790         2.706056         1.923130
 C         0.602619         1.862225         1.919045
 C         0.423526         0.880799         3.136600
 C        -0.271083         0.015859         2.163189
 C        -1.350908         0.912457         1.309706
 C        -0.535662         0.484841        -0.030798
 C         0.605694         0.528433         1.009651
 O         1.864862        -0.165612         0.688735
 C        -0.874419         2.350729         1.734452
 H         2.190137         2.981600         1.078808
 H         1.410481         0.414300         3.283773
 H        -0.075222         1.280964         3.988569
 H        -0.260813        -1.134677         2.261054
 H        -2.465573         0.800503         1.311181
 H        -0.770167        -0.546535        -0.312249
 H        -0.646687         1.222700        -0.847758
 H         2.104028        -0.535532         1.588791
 H        -0.870086         3.053470         0.858600
 H        -1.318283         2.787059         2.612777
