19
Iteration:  4382charge 0 multiplicity 1
 O         1.744371         2.749391         1.681135
 C         0.688177         1.822197         1.809284
 C         0.337357         1.196381         3.221686
 C        -0.364824         0.189252         2.303179
 C        -1.337663         0.829675         1.351066
 C        -0.580224         0.274656         0.100023
 C         0.679301         0.398736         1.064775
 O         1.908452        -0.279478         0.866921
 C        -0.773115         2.289190         1.423917
 H         1.498664         3.412683         2.373439
 H         1.258922         0.758391         3.699370
 H        -0.260281         1.791429         3.885594
 H        -0.591784        -0.881227         2.724937
 H        -2.409348         0.667877         1.417268
 H        -0.787323        -0.874764        -0.103541
 H        -0.801070         0.919721        -0.795913
 H         2.434862         0.393363         0.528531
 H        -0.692747         2.841314         0.500643
 H        -1.290781         2.834746         2.223764
