19
Iteration:  3309charge 0 multiplicity 1
 O         1.766120         2.689633         1.849737
 C         0.647670         1.902778         1.857307
 C         0.318259         1.123059         3.204688
 C        -0.256317         0.048258         2.215738
 C        -1.326447         0.868995         1.312797
 C        -0.590905         0.361091         0.175861
 C         0.643058         0.468226         1.077186
 O         1.840431        -0.293707         0.772332
 C        -0.757225         2.341939         1.485758
 H         1.826564         3.089294         0.948350
 H         1.238364         0.826637         3.687881
 H        -0.406515         1.627709         3.879909
 H        -0.486893        -1.002979         2.503682
 H        -2.324988         0.668560         1.264489
 H        -0.862123        -0.611613        -0.089634
 H        -0.752722         1.111085        -0.548856
 H         2.361254         0.156484         0.163596
 H        -0.691685         2.874842         0.497344
 H        -1.154209         2.936430         2.312296
