19
Iteration:  4936
 O         1.806176         2.645579         1.514475
 C         0.662428         1.895061         1.879596
 C         0.356038         1.116342         3.243012
 C        -0.391592         0.147809         2.299298
 C        -1.357726         0.863676         1.256195
 C        -0.519673         0.246151         0.122420
 C         0.635000         0.364643         1.144863
 O         1.916920        -0.117267         0.941871
 C        -0.821180         2.302599         1.425046
 H         1.862524         3.281521         2.259324
 H         1.262960         0.569637         3.719825
 H        -0.288303         1.633407         4.002451
 H        -0.867863        -0.877994         2.665157
 H        -2.451109         0.740409         1.478174
 H        -0.675249        -0.855000         0.006442
 H        -0.507755         0.837322        -0.842905
 H         2.190493         0.819078         0.631614
 H        -0.873838         2.979654         0.567750
 H        -1.386825         2.568824         2.272092
