19
Iteration:  1322charge 0 multiplicity 1
 O         1.579770         2.841593         1.653687
 C         0.701561         1.778365         1.925749
 C         0.516869         0.801165         3.207751
 C        -0.351162        -0.010468         2.119633
 C        -1.372770         0.994979         1.254636
 C        -0.560523         0.535650        -0.009444
 C         0.604247         0.409311         1.009608
 O         1.913877        -0.147141         1.003775
 C        -0.755984         2.370895         1.732095
 H         2.312214         2.476575         1.081777
 H         1.381264         0.238712         3.407273
 H         0.092283         1.352452         4.042265
 H        -0.704385        -1.039628         2.310345
 H        -2.379581         0.887031         1.399656
 H        -0.894307        -0.478551        -0.239488
 H        -0.597329         1.180879        -0.925852
 H         1.962050        -0.837437         0.396465
 H        -0.726025         3.194971         0.972959
 H        -1.147960         2.756510         2.676016
