19
Iteration:  2014charge 0 multiplicity 1
 O         1.782562         2.623142         1.965029
 C         0.644240         1.842610         1.893486
 C         0.370512         1.028910         3.128112
 C        -0.333851        -0.004303         2.269043
 C        -1.393500         0.827573         1.346595
 C        -0.610080         0.426994         0.156089
 C         0.634587         0.431591         1.091125
 O         1.835626        -0.001495         0.599519
 C        -0.681831         2.252793         1.398010
 H         1.709343         3.354766         1.330481
 H         1.257567         0.576574         3.564532
 H        -0.071825         1.575024         4.027103
 H        -0.660232        -0.902377         2.774783
 H        -2.409519         0.906666         1.678932
 H        -0.822980        -0.564690        -0.219792
 H        -0.605615         1.174267        -0.640601
 H         2.451026        -0.172491         1.311752
 H        -0.552430         2.724030         0.369801
 H        -1.160831         3.093992         1.893658
