19
Iteration:  2509
 O         1.781179         2.768600         1.730968
 C         0.670543         1.870997         1.884530
 C         0.362549         1.105667         3.198579
 C        -0.308822        -0.014397         2.246986
 C        -1.357511         0.885058         1.312540
 C        -0.529208         0.344919         0.066570
 C         0.597637         0.372013         1.037825
 O         1.855862        -0.216315         0.834140
 C        -0.793357         2.341723         1.622255
 H         1.624922         3.268871         0.916361
 H         1.144270         0.600138         3.768473
 H        -0.159211         1.789580         3.828738
 H        -0.585526        -0.952262         2.553445
 H        -2.461677         0.631232         1.269050
 H        -0.802744        -0.717671        -0.140543
 H        -0.420353         1.079737        -0.760063
 H         2.492151         0.245281         0.316386
 H        -0.912676         3.026195         0.785282
 H        -1.224004         2.706297         2.510016
