19
Iteration:  1876charge 0 multiplicity 1
 O         1.876124         2.520257         1.942603
 C         0.622653         1.811952         1.943584
 C         0.385606         1.083247         3.182623
 C        -0.283736         0.068784         2.343244
 C        -1.375922         0.864148         1.326451
 C        -0.545383         0.379446         0.074710
 C         0.540715         0.417366         1.077399
 O         1.889382         0.111736         0.625229
 C        -0.858250         2.290182         1.435846
 H         2.043947         2.978298         1.102458
 H         1.273683         0.672114         3.713083
 H        -0.254897         1.545110         3.899992
 H        -0.545747        -1.006252         2.603420
 H        -2.416819         0.711683         1.518502
 H        -0.742782        -0.659386        -0.221220
 H        -0.568540         1.050324        -0.754341
 H         1.936828        -0.868647         0.308520
 H        -0.948704         2.867948         0.491660
 H        -1.260298         3.012007         2.168180
