19
Iteration:  3149
 O         1.757032         2.719503         1.842749
 C         0.641561         1.851208         1.847632
 C         0.457588         1.086261         3.199877
 C        -0.313244         0.042544         2.259801
 C        -1.334060         0.817629         1.358469
 C        -0.632255         0.369969         0.065791
 C         0.658491         0.499474         0.924322
 O         1.829526        -0.267916         0.886683
 C        -0.769986         2.341071         1.461603
 H         1.510485         3.372983         1.145809
 H         1.534823         0.891904         3.422061
 H        -0.180245         1.530999         3.980371
 H        -0.654557        -0.945753         2.579153
 H        -2.380488         0.935669         1.544766
 H        -0.871748        -0.633809        -0.289707
 H        -0.701745         1.063581        -0.783977
 H         2.672796         0.135948         1.016534
 H        -1.008030         2.813986         0.530265
 H        -1.214389         2.892788         2.293852
