19
Iteration:  2592charge 0 multiplicity 1
 O         1.658420         2.728873         1.649143
 C         0.630750         1.857105         1.908414
 C         0.390647         1.107302         3.183580
 C        -0.330283         0.083691         2.285060
 C        -1.370862         0.904273         1.311168
 C        -0.482994         0.363156         0.105088
 C         0.637778         0.469568         1.113257
 O         1.880629        -0.255457         0.787546
 C        -0.793947         2.292550         1.549466
 H         2.233425         2.610307         2.444014
 H         1.392262         0.784215         3.629120
 H        -0.213800         1.621169         3.974825
 H        -0.524619        -1.073109         2.520662
 H        -2.412320         0.601345         1.286874
 H        -0.657384        -0.702556        -0.136733
 H        -0.456867         0.802959        -0.958210
 H         2.502651         0.341367         0.292174
 H        -0.805183         2.948432         0.634348
 H        -1.275318         2.949616         2.364818
