19
Iteration:  1397
 O         1.791935         2.715288         1.921218
 C         0.711900         1.768057         1.940092
 C         0.275672         0.998770         3.210764
 C        -0.363467         0.008097         2.261626
 C        -1.346506         0.930864         1.369727
 C        -0.600302         0.330385         0.162948
 C         0.637090         0.407731         1.073864
 O         1.880842        -0.032957         0.491012
 C        -0.651239         2.389217         1.460400
 H         1.374979         3.584157         1.891742
 H         1.157444         0.645221         3.722809
 H        -0.467289         1.445768         3.916859
 H        -0.731495        -1.065974         2.297317
 H        -2.350830         0.758126         1.427711
 H        -0.845225        -0.689371         0.208803
 H        -0.624772         0.764746        -0.748580
 H         1.829438        -1.029979         0.811329
 H        -0.445097         2.885674         0.504181
 H        -1.023252         3.182963         2.129275
