19
Iteration:  4176
 O         1.633772         2.753024         1.660207
 C         0.632633         1.789853         1.875860
 C         0.484563         1.157077         3.175364
 C        -0.304716         0.158827         2.282287
 C        -1.337237         0.962218         1.300596
 C        -0.543307         0.387656         0.049890
 C         0.593066         0.371319         1.083737
 O         1.937059        -0.361944         0.896509
 C        -0.848767         2.318377         1.449984
 H         1.880039         3.344917         2.359357
 H         1.276636         0.549671         3.571498
 H        -0.151568         1.683774         3.983740
 H        -0.489891        -0.960048         2.569680
 H        -2.411260         0.812262         1.377024
 H        -0.979912        -0.672874        -0.046362
 H        -0.571127         0.753350        -0.975964
 H         2.736703         0.030608         1.148073
 H        -0.871941         2.975832         0.611997
 H        -1.081490         2.866695         2.387394
