19
Iteration:  3205
 O         1.702464         2.581121         1.732729
 C         0.617349         1.792172         1.869638
 C         0.461331         1.100745         3.198677
 C        -0.376041         0.144983         2.306822
 C        -1.344280         0.861539         1.256645
 C        -0.502685         0.442306         0.104069
 C         0.592988         0.405617         1.123550
 O         1.907812        -0.223710         0.785797
 C        -0.814992         2.359134         1.563626
 H         1.471276         3.283204         1.097831
 H         1.474085         0.669037         3.561054
 H         0.014784         1.518464         4.168663
 H        -0.688246        -0.812409         2.670960
 H        -2.475727         0.855785         1.465454
 H        -0.610352        -0.601803        -0.302059
 H        -0.212115         1.129843        -0.694984
 H         2.501235         0.548512         0.447191
 H        -0.860492         2.734600         0.555519
 H        -1.397154         3.056106         2.176543
