19
Iteration:   185charge 0 multiplicity 1
 O         1.789419         2.635088         1.920339
 C         0.655448         1.815255         1.934138
 C         0.439940         0.950274         3.204083
 C        -0.323057         0.009912         2.234491
 C        -1.392220         0.855945         1.311691
 C        -0.548326         0.455356         0.040838
 C         0.570758         0.476831         0.978388
 O         1.848584        -0.026916         0.715730
 C        -0.817688         2.339725         1.487465
 H         2.323094         2.336085         2.675917
 H         1.360493         0.426655         3.413068
 H        -0.041174         1.371618         4.083877
 H        -0.662925        -0.892468         2.550189
 H        -2.505442         0.760131         1.385898
 H        -0.624239        -0.604058        -0.278181
 H        -0.659060         1.119525        -0.843770
 H         2.325955         0.510829        -0.003057
 H        -0.979191         2.969005         0.621567
 H        -1.178664         2.824930         2.438582
