19
Iteration:  3880
 O         1.609162         2.858923         1.742114
 C         0.629001         1.846052         1.824779
 C         0.491917         1.036638         3.138434
 C        -0.251718         0.019080         2.272251
 C        -1.353679         0.913802         1.288232
 C        -0.600071         0.412806         0.068018
 C         0.598816         0.301955         1.090995
 O         1.860376        -0.305414         0.963483
 C        -0.740517         2.385034         1.419401
 H         2.469611         2.539359         2.091622
 H         1.469890         0.652716         3.522444
 H         0.010114         1.569418         3.932495
 H        -0.635872        -0.873728         2.626247
 H        -2.412427         0.735993         1.495712
 H        -0.925037        -0.614974        -0.145772
 H        -0.598286         1.122637        -0.788006
 H         2.444195         0.363718         0.431158
 H        -0.806166         3.055379         0.557937
 H        -1.233940         2.995600         2.276965
