19
Iteration:  4834
 O         1.683338         2.848767         1.771044
 C         0.627854         1.902353         1.847352
 C         0.382979         1.161848         3.169246
 C        -0.299685         0.093835         2.306388
 C        -1.347581         0.873408         1.352408
 C        -0.559572         0.272570         0.124065
 C         0.632540         0.340918         1.171248
 O         1.879134        -0.333081         0.787454
 C        -0.718381         2.280833         1.374937
 H         1.448599         3.350300         0.959842
 H         1.293675         0.748787         3.664508
 H        -0.095020         1.741617         4.052881
 H        -0.649629        -0.802730         2.612631
 H        -2.374748         0.820230         1.555016
 H        -0.702755        -0.802958        -0.232648
 H        -0.458549         0.885702        -0.729835
 H         2.433819         0.334028         1.226734
 H        -0.568322         2.782765         0.385545
 H        -1.357689         2.964850         1.939115
