19
Iteration:  1265charge 0 multiplicity 1
 O         1.825311         2.565329         1.951699
 C         0.569239         1.861427         1.880588
 C         0.382089         1.094253         3.196413
 C        -0.227119         0.081160         2.309180
 C        -1.342373         0.857637         1.292415
 C        -0.551537         0.427986         0.092720
 C         0.644728         0.453251         1.023523
 O         1.807544        -0.095992         0.613610
 C        -0.820768         2.288829         1.486039
 H         1.965535         3.054655         2.774952
 H         1.430750         0.697304         3.506269
 H         0.112282         1.582596         4.133842
 H        -0.545547        -1.033921         2.659542
 H        -2.430675         0.605364         1.530079
 H        -0.944275        -0.614633        -0.148463
 H        -0.594037         1.151684        -0.748173
 H         1.887862        -0.060339        -0.425433
 H        -0.835443         2.868918         0.559865
 H        -1.432913         2.852983         2.254958
