19
Iteration:  2929
 O         1.765467         2.729102         1.824263
 C         0.688977         1.752909         1.868914
 C         0.349430         1.076473         3.190059
 C        -0.295594         0.012725         2.268957
 C        -1.352762         0.918830         1.414469
 C        -0.572862         0.399358         0.052878
 C         0.605133         0.397272         1.095987
 O         1.810895        -0.134064         0.745867
 C        -0.682845         2.298022         1.439932
 H         1.565552         3.028420         0.895589
 H         1.235124         0.704527         3.768384
 H        -0.215130         1.597045         3.963821
 H        -0.631317        -1.087531         2.394034
 H        -2.420663         0.847690         1.594518
 H        -0.852572        -0.589661        -0.191185
 H        -0.692091         0.993845        -0.814322
 H         2.475269         0.466975         1.082025
 H        -0.928096         2.709360         0.475119
 H        -1.041271         2.928555         2.253324
