19
Iteration:  4989charge 0 multiplicity 1
 O         1.635933         2.922341         1.654814
 C         0.677722         1.851090         1.826257
 C         0.405249         1.129968         3.307302
 C        -0.314704         0.112644         2.313814
 C        -1.339056         0.863520         1.252872
 C        -0.542985         0.276899         0.096480
 C         0.631148         0.390766         1.088947
 O         1.857673        -0.301417         0.970087
 C        -0.773847         2.268480         1.399180
 H         2.431889         2.387075         1.849577
 H         1.417216         0.546698         3.460595
 H        -0.206122         1.798316         4.024207
 H        -0.476408        -1.022731         2.625573
 H        -2.427982         0.776327         1.382493
 H        -0.967749        -0.729291        -0.195570
 H        -0.531733         0.769947        -0.829314
 H         2.495583         0.314766         0.460451
 H        -0.650888         2.821710         0.369255
 H        -1.323662         3.075359         1.956875
