19
Iteration:  3026
 O         1.786616         2.706783         1.703588
 C         0.657262         1.842819         1.912020
 C         0.278543         1.014360         3.202274
 C        -0.332756         0.027743         2.280434
 C        -1.296761         0.925930         1.366961
 C        -0.543383         0.360256         0.114533
 C         0.603011         0.419741         1.068254
 O         1.849587        -0.220136         0.734788
 C        -0.735739         2.398840         1.523733
 H         1.456407         3.446120         1.134421
 H         1.215126         0.583341         3.623400
 H        -0.270578         1.406168         4.077983
 H        -0.578409        -0.994362         2.775483
 H        -2.389970         0.752438         1.313349
 H        -0.844356        -0.650387         0.005322
 H        -0.413228         0.798112        -0.875376
 H         2.612372         0.453786         0.858290
 H        -0.886730         2.921613         0.585009
 H        -1.053290         3.004989         2.382139
