19
Iteration:  4868charge 0 multiplicity 1
 O         1.737517         2.811457         1.759821
 C         0.616119         1.911839         1.771334
 C         0.443230         1.163980         3.118692
 C        -0.354229         0.152684         2.243649
 C        -1.390288         0.850915         1.304642
 C        -0.505077         0.270920         0.138718
 C         0.639486         0.402610         1.099264
 O         1.859668        -0.291521         0.932232
 C        -0.857156         2.280990         1.473192
 H         2.253730         2.758020         0.936899
 H         1.385360         0.542393         3.329469
 H        -0.104061         1.796641         3.916256
 H        -0.490967        -0.923053         2.524339
 H        -2.441036         0.769680         1.493512
 H        -0.513278        -0.873442         0.097528
 H        -0.556329         0.805063        -0.826804
 H         2.603437         0.213769         1.166153
 H        -0.922034         2.987693         0.607274
 H        -1.294228         2.589381         2.406551
