19
Iteration:  1743charge 0 multiplicity 1
 O         1.696422         2.649773         1.723251
 C         0.626592         1.794470         1.913069
 C         0.468382         0.891373         3.219895
 C        -0.424112         0.028901         2.249617
 C        -1.354878         0.976239         1.307908
 C        -0.574944         0.362925         0.069353
 C         0.595943         0.461837         1.028085
 O         1.971539         0.040640         0.710836
 C        -0.757498         2.379969         1.611766
 H         2.436600         2.592646         2.339316
 H         1.382748         0.387945         3.393168
 H         0.086718         1.333880         4.168033
 H        -0.923352        -0.931897         2.411902
 H        -2.376669         1.001258         1.408385
 H        -0.821047        -0.639174         0.037958
 H        -0.593001         0.860548        -0.836347
 H         1.968585        -0.942770         0.400121
 H        -0.995894         3.197797         0.906145
 H        -1.217378         2.746948         2.535870
