19
Iteration:  1371charge 0 multiplicity 1
 O         1.810210         2.608140         1.861683
 C         0.661158         1.842475         1.887610
 C         0.333768         1.076175         3.230650
 C        -0.266651         0.108633         2.240979
 C        -1.322013         0.875468         1.337420
 C        -0.564313         0.463431         0.043021
 C         0.617782         0.409005         1.010617
 O         1.892726        -0.119257         0.649636
 C        -0.815395         2.291103         1.602199
 H         1.682631         3.480018         1.472956
 H         1.296831         0.684900         3.733357
 H        -0.498442         1.393886         3.888952
 H        -0.492943        -0.970425         2.395045
 H        -2.483901         0.631129         1.362087
 H        -1.026424        -0.537062        -0.317965
 H        -0.527735         1.378232        -0.721008
 H         1.758779        -1.054748         1.071040
 H        -0.887426         2.926443         0.725290
 H        -1.202022         2.841172         2.491252
