19
Iteration:  2214
 O         1.861154         2.549518         1.701208
 C         0.609348         1.787294         1.876016
 C         0.324213         1.040562         3.225945
 C        -0.373851         0.044497         2.237348
 C        -1.341363         0.963156         1.262743
 C        -0.496696         0.360861         0.113429
 C         0.618386         0.427949         1.079727
 O         1.881463         0.016464         0.770598
 C        -0.828192         2.310564         1.602850
 H         1.655777         3.100310         0.917308
 H         1.325274         0.575018         3.640201
 H        -0.301629         1.528565         4.025977
 H        -0.639573        -0.986479         2.509597
 H        -2.421113         0.838518         1.256022
 H        -0.664007        -0.754939         0.015985
 H        -0.526299         0.773282        -0.856672
 H         2.429412         0.447044         1.521989
 H        -0.965615         2.911832         0.638947
 H        -1.323982         2.682418         2.515936
