19
Iteration:  1214
 O         1.687171         2.712355         1.715203
 C         0.662773         1.788175         1.920762
 C         0.484100         0.863409         3.217475
 C        -0.352644         0.043316         2.241567
 C        -1.340466         0.880733         1.343691
 C        -0.607183         0.522043         0.002352
 C         0.597257         0.469428         1.042879
 O         1.849277        -0.195345         0.739725
 C        -0.703574         2.332049         1.620610
 H         1.443181         3.589897         2.040081
 H         1.384221         0.469460         3.581331
 H        -0.023472         1.329270         4.068659
 H        -0.596319        -0.988340         2.348278
 H        -2.371891         0.796907         1.506836
 H        -0.778275        -0.472825        -0.311045
 H        -0.516795         1.301222        -0.748334
 H         2.496197         0.499145         0.993482
 H        -0.684356         2.926887         0.689572
 H        -1.233468         2.867046         2.388282
