19
Iteration:  3135
 O         1.706163         2.691616         1.792523
 C         0.612648         1.863059         1.812215
 C         0.460852         1.079895         3.137355
 C        -0.266623         0.088802         2.322893
 C        -1.310189         0.915407         1.320089
 C        -0.482888         0.443859         0.073024
 C         0.585974         0.342606         1.134461
 O         1.803788        -0.283092         0.800018
 C        -0.852758         2.312459         1.504830
 H         1.666770         3.438995         1.176230
 H         1.375166         0.631744         3.514934
 H         0.027454         1.619654         3.950462
 H        -0.529010        -0.957183         2.640794
 H        -2.330080         0.630682         1.334943
 H        -0.746394        -0.558256        -0.271459
 H        -0.395285         1.175375        -0.842703
 H         2.509254         0.458584         0.952132
 H        -0.820044         2.946260         0.592065
 H        -1.298691         2.904005         2.331905
