19
Iteration:  2207charge 0 multiplicity 1
 O         1.883367         2.495851         1.720563
 C         0.651254         1.802424         1.868755
 C         0.261620         1.052270         3.243866
 C        -0.359501         0.071652         2.253745
 C        -1.349589         0.912513         1.309254
 C        -0.488778         0.307146         0.089281
 C         0.618558         0.502119         1.069880
 O         1.872019         0.063024         0.728185
 C        -0.821629         2.301081         1.602923
 H         1.799223         2.965317         0.858080
 H         1.052730         0.430203         3.610354
 H        -0.299218         1.609823         3.987844
 H        -0.646839        -0.880688         2.565712
 H        -2.494969         1.034887         1.357081
 H        -0.523165        -0.806875         0.106435
 H        -0.523737         0.623176        -1.079058
 H         2.526262         0.435156         1.471321
 H        -1.027330         2.953271         0.797601
 H        -1.498476         2.693445         2.403519
