19
Iteration:  1195
 O         1.704300         2.608880         1.625475
 C         0.634566         1.766003         1.910410
 C         0.532881         0.966541         3.117008
 C        -0.344531         0.003332         2.195378
 C        -1.376447         0.910786         1.351613
 C        -0.405121         0.656213         0.071048
 C         0.635874         0.441641         1.102372
 O         1.798342        -0.197509         0.789445
 C        -0.926251         2.299905         1.693649
 H         1.399101         3.525049         1.632199
 H         1.436479         0.389184         3.222214
 H         0.393667         1.234980         4.193101
 H        -0.591523        -0.909103         2.502221
 H        -2.394113         0.747088         1.133673
 H        -0.664234        -0.266407        -0.458817
 H        -0.248528         1.554472        -0.588157
 H         2.518200         0.236092         1.379941
 H        -1.128577         3.052925         0.900326
 H        -1.192440         2.700232         2.654172
