19
Iteration:   805charge 0 multiplicity 1
 O         1.801122         2.759385         2.028135
 C         0.699843         1.876344         1.915628
 C         0.380480         1.025379         3.133900
 C        -0.314536         0.032093         2.251219
 C        -1.316924         0.916974         1.332639
 C        -0.629370         0.371878         0.109546
 C         0.591179         0.405069         0.957702
 O         1.794866        -0.224119         0.529577
 C        -0.734566         2.298781         1.588391
 H         1.607956         3.531390         1.476545
 H         1.169759         0.456138         3.625850
 H        -0.051675         1.641509         3.909632
 H        -0.612874        -0.979388         2.478449
 H        -2.310565         0.864427         1.415702
 H        -0.817007        -0.677153        -0.038873
 H        -0.468681         0.883552        -0.790661
 H         2.435519         0.299522         0.959679
 H        -0.769888         2.864186         0.712132
 H        -1.244143         2.818645         2.372479
