19
Iteration:  2719
 O         1.801789         2.650627         1.631197
 C         0.605511         1.843153         1.865219
 C         0.339044         0.982768         3.237480
 C        -0.329775         0.078293         2.207037
 C        -1.398141         0.843097         1.303778
 C        -0.542097         0.336509         0.085277
 C         0.635412         0.444130         1.088977
 O         1.939261         0.070968         0.880683
 C        -0.791461         2.367862         1.561793
 H         2.384142         1.989363         1.186493
 H         1.208012         0.683992         3.787956
 H        -0.373840         1.461338         3.954625
 H        -0.702025        -0.961267         2.208715
 H        -2.538250         0.704885         1.489048
 H        -0.921752        -0.657148        -0.146877
 H        -0.425525         0.865333        -0.886689
 H         1.881879        -0.894147         1.289716
 H        -0.881663         3.084188         0.742684
 H        -1.117066         2.834493         2.501430
