19
Iteration:  1879
 O         1.873308         2.524770         1.929381
 C         0.631274         1.815144         1.928091
 C         0.383809         1.088385         3.194863
 C        -0.312603         0.044001         2.367624
 C        -1.363846         0.871639         1.292011
 C        -0.560686         0.367188         0.055765
 C         0.537893         0.433363         1.071584
 O         1.912666         0.103264         0.621791
 C        -0.851135         2.274201         1.467837
 H         2.083310         3.002771         1.102477
 H         1.326789         0.770594         3.726218
 H        -0.265877         1.596994         3.893366
 H        -0.604531        -0.999442         2.600924
 H        -2.503685         0.687047         1.525991
 H        -0.722376        -0.632873        -0.150106
 H        -0.551487         1.080975        -0.750744
 H         1.862472        -0.785477         0.372866
 H        -0.885413         2.936976         0.603304
 H        -1.297460         2.961147         2.242886
