19
Iteration:  1508charge 0 multiplicity 1
 O         1.623583         2.742191         1.768917
 C         0.625935         1.835944         1.866709
 C         0.498321         0.956455         3.165347
 C        -0.367340         0.048702         2.234483
 C        -1.329324         0.928937         1.302095
 C        -0.446561         0.516945         0.049697
 C         0.590947         0.413335         1.083929
 O         1.880407        -0.226486         0.876991
 C        -0.832475         2.366225         1.627540
 H         2.196310         2.433614         1.022132
 H         1.372733         0.303186         3.264688
 H         0.182405         1.340957         4.158982
 H        -0.676451        -0.948250         2.502512
 H        -2.398800         0.710982         1.128520
 H        -0.751468        -0.462426        -0.303442
 H        -0.330270         1.285690        -0.705644
 H         2.079984        -0.400440        -0.009021
 H        -0.783322         3.089736         0.733250
 H        -1.247838         2.991711         2.443114
