19
Iteration:  2863
 O         1.808859         2.630895         1.572480
 C         0.633656         1.824980         1.860343
 C         0.385116         1.028281         3.160505
 C        -0.336708         0.041092         2.168691
 C        -1.339519         0.867568         1.349690
 C        -0.659869         0.406488         0.053093
 C         0.624974         0.451287         1.084457
 O         1.878640        -0.106829         0.972122
 C        -0.792731         2.317662         1.527580
 H         2.220035         2.971463         2.373059
 H         1.351985         0.642097         3.539704
 H        -0.040632         1.465822         4.077844
 H        -0.433718        -1.044802         2.521353
 H        -2.423234         0.811943         1.557718
 H        -0.766931        -0.600141        -0.294162
 H        -0.880311         1.062237        -0.794057
 H         2.472528         0.683210         1.317444
 H        -0.847965         2.942635         0.640986
 H        -1.245207         2.816984         2.398020
