19
Iteration:  1556
 O         1.746937         2.642555         1.892114
 C         0.644682         1.807103         1.911087
 C         0.335106         0.981834         3.172153
 C        -0.316328         0.067857         2.244156
 C        -1.369229         0.905886         1.410613
 C        -0.597488         0.378870         0.100094
 C         0.611519         0.429655         1.022207
 O         1.925747        -0.047125         0.643027
 C        -0.729937         2.345673         1.446573
 H         2.008094         2.812671         2.807128
 H         1.349377         0.775269         3.596271
 H        -0.259535         1.538700         3.900267
 H        -0.506148        -0.962433         2.626691
 H        -2.511191         0.962718         1.647336
 H        -0.837619        -0.705139         0.020855
 H        -0.437410         1.002589        -0.772699
 H         1.847794        -0.678534        -0.172170
 H        -0.706276         2.938666         0.477237
 H        -1.060933         3.178171         2.135493
