19
Iteration:  4036charge 0 multiplicity 1
 O         1.703549         2.827362         1.694489
 C         0.677228         1.881516         1.783388
 C         0.444347         1.119171         3.118839
 C        -0.371636         0.080186         2.323749
 C        -1.309116         0.870030         1.339058
 C        -0.594434         0.410018         0.113322
 C         0.632130         0.327049         1.050645
 O         1.910583        -0.363255         0.938966
 C        -0.802866         2.292921         1.485436
 H         1.521263         3.583002         2.248920
 H         1.271738         0.636733         3.545008
 H        -0.085494         1.660258         3.965236
 H        -0.744388        -0.991122         2.659692
 H        -2.368917         0.711896         1.199922
 H        -0.942851        -0.440162        -0.485653
 H        -0.471013         0.961350        -0.806090
 H         2.523348         0.294500         0.473536
 H        -0.990508         2.877592         0.554943
 H        -1.057381         2.890389         2.451911
