19
Iteration:  3418charge 0 multiplicity 1
 O         1.860969         2.604796         1.799896
 C         0.662340         1.821992         1.856219
 C         0.391095         1.105215         3.184662
 C        -0.418666         0.106688         2.299421
 C        -1.384375         0.805632         1.321883
 C        -0.564835         0.379461         0.127860
 C         0.577090         0.427810         1.073314
 O         1.853294        -0.107481         0.747734
 C        -0.772836         2.313787         1.491224
 H         1.977415         2.848241         0.874161
 H         1.259672         0.649110         3.745021
 H        -0.145012         1.821897         3.982710
 H        -0.480591        -0.940157         2.663543
 H        -2.390293         0.715840         1.518312
 H        -0.701592        -0.629432        -0.218114
 H        -0.463664         1.078198        -0.735823
 H         2.420119         0.620316         0.760167
 H        -0.934651         2.915215         0.589807
 H        -1.260526         2.820065         2.319968
