19
Iteration:  1484charge 0 multiplicity 1
 O         1.622156         2.767212         1.597943
 C         0.684883         1.778585         1.916709
 C         0.468810         0.915798         3.222119
 C        -0.380451         0.012050         2.234931
 C        -1.370266         0.957232         1.278934
 C        -0.381871         0.639650         0.022001
 C         0.578502         0.407396         1.118933
 O         1.854126        -0.217360         0.960371
 C        -0.765994         2.276661         1.651688
 H         1.523821         2.753663         0.623779
 H         1.279703         0.261308         3.454705
 H        -0.029024         1.324435         4.128257
 H        -0.617666        -1.050396         2.474945
 H        -2.377513         0.856135         1.287695
 H        -0.683128        -0.217178        -0.576823
 H        -0.200486         1.524633        -0.644726
 H         2.079804        -0.432084        -0.008201
 H        -0.775807         3.087395         0.943362
 H        -1.238043         2.638249         2.566019
