19
Iteration:  1424charge 0 multiplicity 1
 O         1.765829         2.670648         1.953220
 C         0.682702         1.788206         1.960851
 C         0.492370         1.012717         3.170455
 C        -0.412026         0.069753         2.336302
 C        -1.303806         0.891409         1.324866
 C        -0.618611         0.374589         0.017434
 C         0.563746         0.398530         1.049338
 O         1.879255        -0.026395         0.690565
 C        -0.727646         2.325342         1.378986
 H         1.437861         3.570324         2.023463
 H         1.464955         0.490119         3.402150
 H         0.265676         1.451076         4.137904
 H        -0.858770        -0.875086         2.532619
 H        -2.469803         0.810233         1.552684
 H        -0.806736        -0.773160        -0.112103
 H        -0.689357         1.022305        -0.975250
 H         1.595283        -0.928971         0.260061
 H        -0.501339         2.973817         0.490757
 H        -1.286127         3.018303         2.047630
