19
Iteration:  4574charge 0 multiplicity 1
 O         1.753769         2.638556         1.464491
 C         0.684554         1.822724         1.848124
 C         0.323772         1.112553         3.218553
 C        -0.334575         0.112366         2.299970
 C        -1.357854         0.868853         1.304028
 C        -0.511091         0.240234         0.123490
 C         0.529691         0.410305         1.163617
 O         1.871519        -0.043862         1.013162
 C        -0.785496         2.295324         1.431721
 H         2.391938         2.578571         2.209588
 H         1.278728         0.606037         3.623723
 H        -0.105298         1.693032         4.074341
 H        -0.546240        -0.924021         2.578218
 H        -2.474623         0.805230         1.338755
 H        -0.680552        -0.696639        -0.396606
 H        -0.325657         0.925682        -0.723634
 H         2.386114         0.677987         0.618221
 H        -0.780665         3.037122         0.543838
 H        -1.155838         2.821027         2.327986
