19
Iteration:  4588
 O         1.702349         2.585644         1.461368
 C         0.581330         1.795121         1.796294
 C         0.348782         1.156140         3.235109
 C        -0.388713         0.084552         2.332419
 C        -1.341960         0.889101         1.312587
 C        -0.534542         0.369033         0.070559
 C         0.634369         0.359767         1.122009
 O         2.021541        -0.082201         1.032007
 C        -0.798745         2.331501         1.501645
 H         2.391880         2.427259         2.112846
 H         1.274462         0.776764         3.725764
 H        -0.426935         1.740678         3.796079
 H        -0.796558        -0.889424         2.750149
 H        -2.346586         0.762457         1.467994
 H        -0.854902        -0.600448        -0.100865
 H        -0.582719         0.912922        -0.902772
 H         2.428284         0.626027         0.467099
 H        -0.849476         2.833702         0.519948
 H        -1.236999         2.918575         2.333621
