19
Iteration:    31charge 0 multiplicity 1
 O         1.812266         2.580782         1.831299
 C         0.668279         1.784351         1.855924
 C         0.425593         0.971444         3.226155
 C        -0.384961         0.024153         2.283744
 C        -1.306008         0.859294         1.372559
 C        -0.557621         0.503183         0.081620
 C         0.605423         0.434389         1.028919
 O         1.844686         0.062983         0.613712
 C        -0.879787         2.284556         1.489500
 H         2.291178         2.401092         2.666625
 H         1.334697         0.451784         3.607679
 H        -0.058021         1.589975         3.965112
 H        -0.716236        -0.970663         2.716195
 H        -2.546128         0.734269         1.337041
 H        -0.869530        -0.524142        -0.314587
 H        -0.590354         1.188621        -0.749090
 H         2.648185         0.312036         1.170831
 H        -0.933934         2.762728         0.541129
 H        -1.335741         2.811211         2.380332
