19
Iteration:   975
 O         1.784425         2.618175         1.947080
 C         0.642934         1.777117         1.957778
 C         0.456998         0.920047         3.285038
 C        -0.352729         0.052322         2.279606
 C        -1.335084         0.935697         1.318310
 C        -0.559408         0.421624         0.096080
 C         0.584693         0.423517         1.039502
 O         1.832489        -0.096758         0.538187
 C        -0.773400         2.340024         1.505116
 H         1.575398         3.536242         1.699071
 H         1.385836         0.377507         3.439797
 H        -0.210184         1.469991         4.045071
 H        -0.615627        -0.975970         2.513416
 H        -2.498549         0.783710         1.324972
 H        -0.810688        -0.585873        -0.345453
 H        -0.598116         1.156914        -0.811742
 H         2.246232         0.716558         0.329678
 H        -0.699886         2.971865         0.539872
 H        -1.023963         3.141039         2.243484
