19
Iteration:   621charge 0 multiplicity 1
 O         1.708354         2.768496         1.967631
 C         0.730073         1.806659         1.870706
 C         0.494911         0.949152         3.194050
 C        -0.306081         0.032260         2.202149
 C        -1.389481         0.887420         1.362685
 C        -0.602467         0.550903         0.057075
 C         0.619789         0.423106         0.999591
 O         1.807038        -0.271976         0.664655
 C        -0.773240         2.275072         1.546162
 H         1.624248         3.468182         1.307421
 H         1.382016         0.433974         3.614407
 H        -0.018266         1.438884         4.015445
 H        -0.595083        -0.964202         2.504735
 H        -2.416511         0.754026         1.542701
 H        -0.978997        -0.391324        -0.326164
 H        -0.523279         1.301890        -0.765930
 H         2.510597         0.479894         0.788839
 H        -0.769873         2.875307         0.632148
 H        -1.157736         2.944415         2.298123
