19
Iteration:  1191charge 0 multiplicity 1
 O         1.719265         2.600169         1.606171
 C         0.639902         1.794833         1.896086
 C         0.528985         0.952484         3.123506
 C        -0.342455         0.025556         2.191448
 C        -1.355155         0.872719         1.317337
 C        -0.421410         0.687731         0.070209
 C         0.613684         0.432334         1.125689
 O         1.816068        -0.210938         0.793032
 C        -0.934433         2.328125         1.723658
 H         1.438796         3.532427         1.533938
 H         1.484859         0.422783         3.194826
 H         0.314923         1.235339         4.135782
 H        -0.621485        -1.051596         2.563663
 H        -2.420167         0.697541         1.077875
 H        -0.597476        -0.270352        -0.392697
 H        -0.188620         1.558046        -0.519443
 H         2.394069         0.241429         1.419918
 H        -1.234172         3.080714         0.982203
 H        -1.301213         2.581421         2.747370
