19
Iteration:  4253charge 0 multiplicity 1
 O         1.840995         2.640206         1.615437
 C         0.549548         1.819253         1.775020
 C         0.372663         1.070567         3.100701
 C        -0.389870         0.084673         2.294428
 C        -1.328912         0.921187         1.359981
 C        -0.549353         0.308151         0.124503
 C         0.577626         0.292407         1.122273
 O         1.934225        -0.089533         0.905152
 C        -0.793241         2.350700         1.480701
 H         1.675776         3.275323         2.336480
 H         1.344281         0.771418         3.474734
 H        -0.161284         1.653189         3.977175
 H        -0.807621        -0.848717         2.806245
 H        -2.390567         0.958891         1.411356
 H        -0.888410        -0.817985        -0.008851
 H        -0.282273         0.843763        -0.838614
 H         2.543459         0.664944         1.146202
 H        -0.873766         2.874576         0.535386
 H        -1.234417         3.031167         2.244467
