19
Iteration:  4817
 O         1.723326         2.804199         1.722869
 C         0.656771         1.802935         1.760508
 C         0.337949         1.170307         3.200352
 C        -0.415339         0.125824         2.383395
 C        -1.319146         0.844604         1.391955
 C        -0.503564         0.316950         0.152023
 C         0.714155         0.346145         1.073914
 O         1.865636        -0.260627         0.803175
 C        -0.738468         2.289296         1.355370
 H         1.164958         3.563701         1.495016
 H         1.136381         0.768227         3.869134
 H        -0.274506         1.755960         3.825684
 H        -0.548403        -0.976754         2.890021
 H        -2.443960         0.621515         1.249099
 H        -0.899459        -0.700821         0.074092
 H        -0.567687         1.076591        -0.730275
 H         2.678064         0.233321         1.075477
 H        -0.843877         2.636343         0.323097
 H        -1.021893         2.955818         2.212742
