19
Iteration:  1539charge 0 multiplicity 1
 O         1.784987         2.745729         1.867707
 C         0.705692         1.844861         1.824803
 C         0.334332         1.051768         3.159064
 C        -0.302509        -0.002015         2.153440
 C        -1.309186         0.858896         1.364381
 C        -0.670995         0.368689         0.089036
 C         0.628167         0.509880         1.014716
 O         1.847839        -0.101270         0.791517
 C        -0.709635         2.327787         1.567452
 H         2.393878         2.384202         2.533956
 H         1.070885         0.568096         3.772155
 H        -0.383026         1.510787         3.873511
 H        -0.608248        -1.059185         2.251362
 H        -2.312982         0.665922         1.403101
 H        -0.815993        -0.712500         0.015676
 H        -0.928542         1.013593        -0.812021
 H         1.914229        -0.537037        -0.132083
 H        -0.801367         2.850873         0.629715
 H        -1.172300         2.887435         2.358080
