19
Iteration:   610charge 0 multiplicity 1
 O         1.659515         2.800222         1.914851
 C         0.617364         1.701050         1.907019
 C         0.555443         0.933149         3.136127
 C        -0.338826         0.023763         2.214427
 C        -1.349133         0.967490         1.333166
 C        -0.593730         0.543933         0.038409
 C         0.599109         0.366904         0.981976
 O         1.818378        -0.212310         0.770962
 C        -0.712613         2.307838         1.625485
 H         1.551840         3.216930         1.035584
 H         1.457858         0.337972         3.332624
 H         0.158482         1.465750         3.994688
 H        -0.676270        -1.006606         2.355799
 H        -2.370388         0.798683         1.380074
 H        -0.824649        -0.413069        -0.428187
 H        -0.581513         1.338346        -0.751019
 H         2.620426         0.367350         0.575889
 H        -0.703001         2.903716         0.717597
 H        -1.029393         2.839863         2.499087
