19
Iteration:  2833charge 0 multiplicity 1
 O         1.606103         2.743360         1.632106
 C         0.626255         1.796408         1.866348
 C         0.473863         1.020711         3.112923
 C        -0.370103         0.031691         2.233112
 C        -1.373956         0.938142         1.322893
 C        -0.538621         0.441134         0.081297
 C         0.640168         0.328011         1.124872
 O         1.906185        -0.196479         0.988549
 C        -0.785207         2.372208         1.517223
 H         2.464027         2.622446         2.098527
 H         1.483564         0.595076         3.428510
 H         0.045982         1.504596         3.991715
 H        -0.486583        -0.978929         2.693932
 H        -2.389369         0.863290         1.330089
 H        -0.702394        -0.582837        -0.432962
 H        -0.519917         1.277380        -0.715979
 H         2.214213         0.258253         0.129898
 H        -0.681914         2.965559         0.585951
 H        -1.116431         2.972327         2.373855
