19
Iteration:   964charge 0 multiplicity 1
 O         1.785846         2.681191         1.979082
 C         0.651643         1.806110         1.989936
 C         0.468469         0.940385         3.186623
 C        -0.359671         0.064657         2.263093
 C        -1.368093         0.966702         1.327605
 C        -0.533860         0.368292         0.064118
 C         0.595328         0.355762         1.066335
 O         1.799338        -0.127397         0.473620
 C        -0.721051         2.378379         1.513315
 H         1.388358         3.535221         2.213473
 H         1.338888         0.521306         3.704358
 H         0.008172         1.432836         4.142414
 H        -0.754512        -0.944638         2.406743
 H        -2.532850         0.854008         1.512239
 H        -0.866322        -0.708338         0.000842
 H        -0.476484         0.942580        -0.949246
 H         2.409083         0.584596         0.484514
 H        -0.626045         2.998985         0.549691
 H        -1.453540         2.743053         2.268987
