19
Iteration:  4379charge 0 multiplicity 1
 O         1.750269         2.765878         1.695854
 C         0.673210         1.876640         1.843650
 C         0.360642         1.205668         3.177625
 C        -0.343259         0.155137         2.306545
 C        -1.302652         0.839443         1.345868
 C        -0.577920         0.260162         0.086979
 C         0.647165         0.362748         1.057355
 O         1.882595        -0.290132         0.871978
 C        -0.785153         2.293177         1.423672
 H         1.510276         3.412184         2.368792
 H         1.228579         0.659403         3.786877
 H        -0.319650         1.774011         3.873991
 H        -0.552759        -0.921132         2.642216
 H        -2.448323         0.663374         1.526364
 H        -0.770837        -0.828836         0.028560
 H        -0.809777         0.912499        -0.836203
 H         2.567806         0.390871         0.523619
 H        -0.679481         2.868654         0.399148
 H        -1.324254         2.924679         2.210920
