19
Iteration:  3299charge 0 multiplicity 1
 O         1.744582         2.699224         1.864640
 C         0.653774         1.779272         1.874148
 C         0.366547         1.140732         3.223932
 C        -0.314206         0.114198         2.293479
 C        -1.347205         0.834261         1.352389
 C        -0.558729         0.390537         0.065611
 C         0.684741         0.436984         1.078122
 O         1.789463        -0.238777         0.765124
 C        -0.737631         2.323247         1.460900
 H         1.924108         3.058053         0.965015
 H         1.265605         0.759505         3.678527
 H        -0.151184         1.702663         3.968738
 H        -0.553485        -0.950932         2.498182
 H        -2.363685         0.720396         1.504931
 H        -0.760436        -0.599742        -0.247768
 H        -0.473295         0.939719        -0.863397
 H         2.286131         0.328201         0.161471
 H        -0.956842         2.743558         0.452343
 H        -1.143514         3.084257         2.149505
