19
Iteration:  1708
 O         1.779627         2.718797         1.979862
 C         0.706935         1.762663         1.861813
 C         0.355346         1.056057         3.180528
 C        -0.313227        -0.071222         2.259727
 C        -1.343867         0.858655         1.447877
 C        -0.640171         0.437269         0.148356
 C         0.583137         0.469574         1.016750
 O         1.856535         0.036168         0.633951
 C        -0.723187         2.310200         1.393716
 H         2.590285         2.173272         1.928202
 H         1.275020         0.705792         3.641393
 H        -0.272914         1.554686         3.966407
 H        -0.678004        -1.092498         2.248061
 H        -2.509468         0.831833         1.655566
 H        -0.669564        -0.550470        -0.332554
 H        -0.638311         1.012671        -0.732195
 H         1.653173        -0.730239        -0.004397
 H        -0.795123         2.702094         0.332914
 H        -1.045020         2.839506         2.291775
