19
Iteration:  3669
 O         1.718768         2.692854         1.580508
 C         0.625606         1.813592         1.866530
 C         0.547352         1.011776         3.175392
 C        -0.351361         0.039236         2.268777
 C        -1.367516         0.876659         1.260960
 C        -0.587150         0.481530         0.045694
 C         0.633308         0.439418         1.034735
 O         1.831530        -0.196609         1.012487
 C        -0.759038         2.288191         1.556639
 H         1.678630         3.447058         2.219247
 H         1.424126         0.497017         3.539647
 H        -0.020174         1.403634         4.041277
 H        -0.744402        -0.947927         2.652949
 H        -2.431880         0.709454         1.306629
 H        -0.869582        -0.568012        -0.237126
 H        -0.675290         1.284673        -0.787926
 H         2.578215         0.348461         0.806822
 H        -0.814252         2.949321         0.617457
 H        -1.237403         2.913937         2.358731
