19
Iteration:  1188charge 0 multiplicity 1
 O         1.737382         2.599052         1.589568
 C         0.632312         1.831958         1.880107
 C         0.522432         0.929798         3.137858
 C        -0.347702         0.040254         2.205303
 C        -1.331206         0.851918         1.279882
 C        -0.437190         0.706593         0.076158
 C         0.592230         0.427699         1.123687
 O         1.832950        -0.219220         0.799653
 C        -0.931592         2.338549         1.755702
 H         1.481720         3.520481         1.452097
 H         1.587380         0.394967         3.197299
 H         0.169072         1.312452         4.136196
 H        -0.630879        -1.142812         2.569004
 H        -2.490025         0.616186         1.099813
 H        -0.579566        -0.300052        -0.438930
 H        -0.162628         1.565608        -0.537968
 H         2.374356         0.212813         1.435724
 H        -1.281500         3.103063         1.056848
 H        -1.398477         2.501179         2.803532
