19
Iteration:  2331
 O         1.688790         2.750501         1.879191
 C         0.683860         1.828670         1.886805
 C         0.439659         1.046743         3.207473
 C        -0.288326         0.084512         2.225970
 C        -1.289510         0.872248         1.344322
 C        -0.589184         0.409679         0.128648
 C         0.611064         0.421436         1.076192
 O         1.795902        -0.225802         0.804420
 C        -0.771476         2.274234         1.391929
 H         1.723141         3.296951         1.069097
 H         1.264156         0.519597         3.751702
 H        -0.111001         1.726076         3.874828
 H        -0.541230        -1.054925         2.466779
 H        -2.331621         0.801274         1.508740
 H        -0.680116        -0.684730        -0.082566
 H        -0.736329         1.099287        -0.875184
 H         2.545530         0.365018         0.418989
 H        -0.560383         2.624268         0.389596
 H        -1.296779         3.046630         1.930424
