19
Iteration:  4664
 O         1.541108         2.975903         1.726225
 C         0.661145         1.904000         1.750760
 C         0.418601         1.113527         3.132834
 C        -0.287111         0.139038         2.309557
 C        -1.252982         0.926702         1.385331
 C        -0.521804         0.300557         0.120591
 C         0.671222         0.325963         1.089705
 O         1.918391        -0.472655         0.985854
 C        -0.811987         2.353470         1.351964
 H         2.316508         2.786121         2.307402
 H         1.381171         0.636492         3.518659
 H        -0.186637         1.729347         3.905321
 H        -0.846341        -0.807747         2.680045
 H        -2.330286         0.698960         1.405255
 H        -0.936424        -0.633028        -0.142781
 H        -0.569119         0.700583        -0.865944
 H         2.145582        -0.448733         0.034940
 H        -0.995222         2.917866         0.398326
 H        -1.269175         3.001802         2.196335
