19
Iteration:  2284charge 0 multiplicity 1
 O         1.675282         2.944554         1.901993
 C         0.667869         1.987881         1.938084
 C         0.454374         1.071191         3.169454
 C        -0.263535         0.152808         2.170447
 C        -1.284451         0.928777         1.282384
 C        -0.458362         0.313700        -0.004504
 C         0.684823         0.388320         0.966429
 O         1.756422        -0.493933         0.841782
 C        -0.826990         2.292315         1.629378
 H         1.344419         3.590504         1.245271
 H         1.447029         0.765937         3.471309
 H        -0.166902         1.432048         4.025717
 H        -0.699804        -0.842391         2.369946
 H        -2.378584         0.669376         1.300625
 H        -0.963753        -0.648181         0.054322
 H        -0.397979         0.590194        -1.144068
 H         2.101130        -0.584018        -0.025394
 H        -1.026021         3.020730         0.891754
 H        -1.259887         2.568017         2.614717
