19
Iteration:  3843
 O         1.649399         2.855889         1.590026
 C         0.712916         1.884471         1.815034
 C         0.480500         0.996153         3.191954
 C        -0.345500         0.037497         2.214935
 C        -1.355683         0.886053         1.229292
 C        -0.463964         0.405814         0.073491
 C         0.640319         0.421268         1.110480
 O         1.742428        -0.260370         1.053134
 C        -0.804471         2.358730         1.599904
 H         2.566018         2.578021         1.597266
 H         1.411308         0.567212         3.597135
 H        -0.239692         1.308009         4.021036
 H        -0.501915        -1.099716         2.375291
 H        -2.448793         0.692537         1.288886
 H        -0.552577        -0.656542        -0.125745
 H        -0.467178         0.927011        -0.859475
 H         2.154834        -0.081244         0.148041
 H        -0.879210         3.125642         0.765285
 H        -1.104013         2.629170         2.599569
