19
Iteration:  1087charge 0 multiplicity 1
 O         1.788900         2.734761         2.069233
 C         0.672048         1.867422         1.892381
 C         0.357554         1.032596         3.167394
 C        -0.267969         0.053321         2.193713
 C        -1.334703         0.891082         1.400239
 C        -0.604414         0.422689         0.093574
 C         0.640155         0.452108         0.954103
 O         1.779442        -0.297329         0.564514
 C        -0.768456         2.320285         1.548353
 H         1.842062         3.523756         1.498429
 H         1.190070         0.631370         3.685734
 H        -0.410002         1.594770         3.733924
 H        -0.322823        -0.979621         2.269826
 H        -2.284385         0.592121         1.648375
 H        -0.843543        -0.648629        -0.043638
 H        -0.745310         0.859790        -0.922981
 H         2.573801         0.368864         0.443476
 H        -0.789983         3.021124         0.685616
 H        -1.048452         2.945879         2.383174
