19
Iteration:   209
 O         1.860651         2.577285         1.918275
 C         0.610990         1.876003         1.928517
 C         0.323249         1.020939         3.125266
 C        -0.313169        -0.014389         2.143349
 C        -1.384822         0.880906         1.297076
 C        -0.599414         0.431385         0.049741
 C         0.630008         0.436956         0.986887
 O         1.947378        -0.063647         0.699415
 C        -0.805225         2.347055         1.692807
 H         1.753806         3.270993         2.630676
 H         1.200807         0.606773         3.510365
 H        -0.280461         1.487720         3.867198
 H        -0.640490        -0.984190         2.309900
 H        -2.398388         0.756758         1.447459
 H        -0.773888        -0.591960        -0.069495
 H        -0.791647         0.879709        -0.943526
 H         2.185295         0.239693        -0.236634
 H        -0.809420         3.070723         0.880963
 H        -1.317148         2.686272         2.551081
