19
Iteration:  3209
 O         1.738436         2.595365         1.703142
 C         0.621856         1.799807         1.857586
 C         0.454833         1.072263         3.214670
 C        -0.364440         0.116263         2.330028
 C        -1.354003         0.888486         1.271114
 C        -0.491617         0.469691         0.114105
 C         0.626547         0.414808         1.099465
 O         1.877136        -0.212670         0.798225
 C        -0.847422         2.290975         1.536723
 H         1.497056         3.330074         1.121076
 H         1.384393         0.785608         3.665019
 H        -0.036571         1.529228         4.124111
 H        -0.767266        -0.852396         2.694047
 H        -2.458303         0.928094         1.368188
 H        -0.625546        -0.516098        -0.286972
 H        -0.251845         1.210755        -0.623121
 H         2.544658         0.456029         0.569739
 H        -0.939675         2.788868         0.508079
 H        -1.357668         2.965714         2.270461
