19
Iteration:  3007charge 0 multiplicity 1
 O         1.696330         2.740644         1.680956
 C         0.626701         1.801550         1.876739
 C         0.404986         1.030107         3.311523
 C        -0.353330         0.054171         2.170059
 C        -1.344913         0.945839         1.385002
 C        -0.540087         0.475232         0.127579
 C         0.663677         0.421103         1.134448
 O         1.866450        -0.296632         0.726246
 C        -0.702989         2.309814         1.506185
 H         1.428942         3.376310         0.975475
 H         1.235433         0.614655         3.985930
 H        -0.424223         1.566879         3.789989
 H        -0.649183        -1.006146         2.350596
 H        -2.323934         0.807010         1.636125
 H        -0.857470        -0.502643        -0.260410
 H        -0.550427         1.204625        -0.645011
 H         2.676791         0.078155         1.296358
 H        -0.668468         2.823185         0.538558
 H        -1.330673         2.863081         2.190989
