19
Iteration:   152
 O         1.557730         2.813302         1.782194
 C         0.666458         1.748310         1.934874
 C         0.380336         0.839549         3.214855
 C        -0.328121         0.008126         2.150245
 C        -1.340464         0.951794         1.372443
 C        -0.530644         0.566473         0.053303
 C         0.687813         0.453126         0.971119
 O         1.866386        -0.205279         0.791356
 C        -0.680607         2.320840         1.612410
 H         2.425060         2.624608         1.415296
 H         1.173302         0.248217         3.650022
 H        -0.211519         1.277747         4.018539
 H        -0.707819        -0.953057         2.238022
 H        -2.483929         0.847751         1.387744
 H        -0.769071        -0.488666        -0.227025
 H        -0.558769         1.237082        -0.823193
 H         2.572052         0.374644         0.619017
 H        -0.803613         3.021460         0.817390
 H        -1.098097         2.814530         2.532723
