19
Iteration:  4135charge 0 multiplicity 1
 O         1.804180         2.543462         1.489087
 C         0.604922         1.838469         1.865798
 C         0.415190         1.029211         3.236002
 C        -0.408365         0.081175         2.269274
 C        -1.426967         0.837538         1.325309
 C        -0.547279         0.412035         0.106842
 C         0.595910         0.431605         1.112943
 O         1.968266        -0.046249         1.015927
 C        -0.816237         2.333111         1.451135
 H         2.251050         2.863254         2.308587
 H         1.321806         0.620429         3.634969
 H        -0.047199         1.628117         4.050762
 H        -0.587251        -1.008223         2.537824
 H        -2.453401         0.604566         1.365591
 H        -0.865311        -0.557121        -0.323076
 H        -0.494296         0.943256        -0.871360
 H         2.422950         0.812751         0.628250
 H        -0.882649         2.972054         0.496126
 H        -1.442824         2.991296         2.196961
