19
Iteration:  3307charge 0 multiplicity 1
 O         1.758874         2.689376         1.852467
 C         0.650241         1.873180         1.860025
 C         0.327068         1.128818         3.211338
 C        -0.265783         0.060192         2.223403
 C        -1.320045         0.853234         1.300673
 C        -0.596029         0.362115         0.171807
 C         0.662643         0.473250         1.082657
 O         1.824071        -0.285457         0.771430
 C        -0.750728         2.345465         1.485012
 H         1.861001         3.079063         0.955986
 H         1.269183         0.823736         3.683148
 H        -0.400757         1.686886         3.951590
 H        -0.508619        -0.986599         2.492268
 H        -2.374247         0.650418         1.284900
 H        -0.880145        -0.634681        -0.138434
 H        -0.693542         1.133100        -0.583377
 H         2.372451         0.231835         0.114157
 H        -0.761313         2.800181         0.478099
 H        -1.111079         2.981230         2.285186
