19
Iteration:  2832charge 0 multiplicity 1
 O         1.604423         2.748981         1.633857
 C         0.623420         1.799483         1.872953
 C         0.468266         1.027708         3.114550
 C        -0.367046         0.032054         2.237168
 C        -1.368716         0.937832         1.313670
 C        -0.537963         0.436707         0.080371
 C         0.647753         0.324381         1.126350
 O         1.898641        -0.197844         0.981043
 C        -0.782282         2.371529         1.520669
 H         2.480949         2.608056         2.072259
 H         1.486558         0.589509         3.379565
 H         0.045395         1.525822         3.989919
 H        -0.500439        -1.024396         2.677625
 H        -2.404707         0.871822         1.339511
 H        -0.670822        -0.583066        -0.399598
 H        -0.493311         1.266415        -0.714428
 H         2.181420         0.215715         0.142180
 H        -0.668631         2.984621         0.618543
 H        -1.130288         2.958550         2.385157
