19
Iteration:  2967charge 0 multiplicity 1
 O         1.743616         2.734387         1.838051
 C         0.701631         1.927770         1.867196
 C         0.573293         1.050487         3.123652
 C        -0.379682         0.082025         2.244086
 C        -1.377325         0.923446         1.317643
 C        -0.545241         0.392200         0.026751
 C         0.622947         0.377375         1.099805
 O         1.818461        -0.271093         0.800821
 C        -0.929684         2.325253         1.530773
 H         1.906315         3.105553         0.960303
 H         1.536239         0.588778         3.255871
 H         0.142993         1.612355         3.958371
 H        -0.691639        -0.909199         2.409651
 H        -2.504655         0.812846         1.367677
 H        -0.753800        -0.746664        -0.051117
 H        -0.117515         0.859845        -0.941335
 H         2.475022        -0.118242         1.413579
 H        -1.273964         3.144062         0.835490
 H        -1.121145         2.684235         2.566936
