19
Iteration:  1149
 O         1.706262         2.676248         1.716655
 C         0.645948         1.764090         1.907896
 C         0.428195         0.864582         3.155263
 C        -0.372814         0.000094         2.203365
 C        -1.338637         0.925323         1.320057
 C        -0.572637         0.563396         0.103226
 C         0.620677         0.466475         1.029436
 O         1.854490        -0.144340         0.803150
 C        -0.694709         2.317777         1.672100
 H         1.413989         3.358945         1.076329
 H         1.204130         0.406453         3.700488
 H        -0.094309         1.395175         3.983106
 H        -0.562492        -1.031523         2.213233
 H        -2.361800         0.680179         1.467370
 H        -0.775480        -0.453791        -0.213621
 H        -0.600074         1.254200        -0.783652
 H         2.584700         0.604044         0.758787
 H        -0.694418         2.988486         0.778759
 H        -1.092169         2.849231         2.522615
