19
Iteration:  3801charge 0 multiplicity 1
 O         1.688915         2.691672         1.652080
 C         0.612317         1.809068         1.863559
 C         0.375635         1.085076         3.230166
 C        -0.335644         0.084663         2.300835
 C        -1.361029         0.893808         1.349774
 C        -0.482481         0.431599         0.177119
 C         0.601652         0.431684         1.139224
 O         1.937667        -0.201599         0.848298
 C        -0.796064         2.325462         1.416086
 H         2.459101         2.201778         2.037427
 H         1.399190         0.742403         3.527708
 H        -0.247952         1.516670         4.038449
 H        -0.736247        -0.902077         2.529986
 H        -2.456695         0.732575         1.219825
 H        -0.753545        -0.506656        -0.319171
 H        -0.453950         1.103792        -0.696479
 H         2.099099         0.161570        -0.111699
 H        -0.915621         2.717626         0.338661
 H        -1.205142         3.045707         2.229206
