19
Iteration:   466
 O         1.644756         2.740326         1.851860
 C         0.624808         1.829132         1.871919
 C         0.436475         0.909335         3.191231
 C        -0.255894         0.021394         2.178206
 C        -1.283460         0.911950         1.458214
 C        -0.562081         0.562221         0.068058
 C         0.628406         0.419248         1.032010
 O         1.887904        -0.223729         0.698845
 C        -0.847577         2.364758         1.534152
 H         2.346893         2.283164         2.372267
 H         1.366316         0.498572         3.560663
 H        -0.074115         1.520386         3.978201
 H        -0.657900        -1.062793         2.438700
 H        -2.271698         0.653856         1.541704
 H        -0.978886        -0.309533        -0.409651
 H        -0.513113         1.291958        -0.683910
 H         2.257362         0.204339        -0.133267
 H        -1.024356         2.914529         0.649998
 H        -1.276301         2.914113         2.384025
