19
Iteration:  2176
 O         1.834461         2.538607         1.930808
 C         0.600753         1.785490         1.872732
 C         0.316744         1.114030         3.209723
 C        -0.276835        -0.003460         2.335925
 C        -1.364390         0.887202         1.356805
 C        -0.591263         0.380045         0.126358
 C         0.602414         0.351488         1.084959
 O         1.899511         0.055396         0.605342
 C        -0.802239         2.306082         1.397218
 H         2.186024         2.789892         1.047914
 H         1.214458         0.820437         3.633556
 H        -0.183177         1.645380         3.994274
 H        -0.703979        -0.977151         2.675086
 H        -2.478713         0.966295         1.336195
 H        -0.855892        -0.628371        -0.066550
 H        -0.503829         1.025651        -0.803813
 H         2.541099         0.602076         1.109481
 H        -0.804054         2.749282         0.423465
 H        -1.388763         3.035800         1.985203
