19
Iteration:  4903charge 0 multiplicity 1
 O         1.678320         2.604958         1.571760
 C         0.590104         1.793496         1.847214
 C         0.380461         1.127726         3.211082
 C        -0.320643         0.110550         2.293748
 C        -1.336832         0.893759         1.336310
 C        -0.481068         0.400675         0.151779
 C         0.633753         0.371923         1.142642
 O         1.900140        -0.152382         0.936810
 C        -0.751030         2.290595         1.392957
 H         1.399985         3.395694         1.070775
 H         1.259819         0.725068         3.846715
 H        -0.185562         1.644726         4.017021
 H        -0.645879        -1.016814         2.560220
 H        -2.435823         0.798024         1.550163
 H        -0.618878        -0.652598        -0.265081
 H        -0.483867         1.058777        -0.821657
 H         2.509693         0.464534         1.309149
 H        -0.771784         2.944864         0.503873
 H        -1.271494         2.911862         2.096602
