19
Iteration:  3861charge 0 multiplicity 1
 O         1.635174         2.871118         1.623038
 C         0.603982         1.889371         1.951657
 C         0.495255         0.968601         3.181008
 C        -0.356246         0.175358         2.186152
 C        -1.328637         0.916357         1.323544
 C        -0.530891         0.323449         0.031789
 C         0.640287         0.533564         1.021196
 O         1.832266        -0.356213         1.024829
 C        -0.791327         2.308838         1.555345
 H         2.427071         2.341286         1.765438
 H         1.371588         0.348406         3.224242
 H         0.223130         1.380113         4.212480
 H        -0.537810        -0.951570         2.316361
 H        -2.394459         0.787829         1.272786
 H        -0.744824        -0.783496         0.023062
 H        -0.467153         1.023780        -0.893853
 H         2.539575        -0.033479         0.364848
 H        -0.725216         2.791707         0.595595
 H        -1.384106         2.869050         2.265697
