19
Iteration:  2754
 O         1.681034         2.731515         1.849457
 C         0.596232         1.819503         1.856526
 C         0.495173         1.051795         3.227297
 C        -0.395023         0.080447         2.271245
 C        -1.390934         0.934211         1.274859
 C        -0.562006         0.319906         0.104669
 C         0.575412         0.381075         1.092372
 O         1.950567        -0.042541         0.805218
 C        -0.738895         2.306502         1.407671
 H         2.279421         2.603896         1.081302
 H         1.467660         0.580280         3.396307
 H         0.095205         1.705363         4.029077
 H        -0.668650        -0.976828         2.717530
 H        -2.446995         0.586367         1.408323
 H        -0.880851        -0.731901        -0.165699
 H        -0.376909         1.040619        -0.786528
 H         1.843904        -1.083629         0.758726
 H        -0.631161         2.981314         0.567602
 H        -1.162831         2.951631         2.223226
