19
Iteration:   375charge 0 multiplicity 1
 O         1.806068         2.630948         1.857247
 C         0.639041         1.804656         1.952465
 C         0.382459         0.930296         3.185349
 C        -0.310293         0.025836         2.202598
 C        -1.415850         0.800224         1.327097
 C        -0.569690         0.493885         0.024112
 C         0.592172         0.560927         0.996856
 O         1.855458         0.047650         0.647568
 C        -0.768793         2.316638         1.623353
 H         2.610355         2.080515         1.818264
 H         1.307914         0.390962         3.583932
 H        -0.085112         1.370056         4.067077
 H        -0.476782        -1.070559         2.448636
 H        -2.585870         0.769474         1.462718
 H        -0.700063        -0.529531        -0.426417
 H        -0.651088         1.069935        -0.939473
 H         2.068460        -0.503761         1.363351
 H        -0.973987         3.013727         0.748202
 H        -1.101691         2.766005         2.562534
