19
Iteration:  4938
 O         1.797393         2.646559         1.527321
 C         0.668181         1.883091         1.879478
 C         0.364940         1.127335         3.248805
 C        -0.380793         0.156083         2.288421
 C        -1.350835         0.865691         1.265081
 C        -0.530216         0.228692         0.124410
 C         0.608869         0.367927         1.145449
 O         1.922992        -0.114843         0.944363
 C        -0.820113         2.299147         1.417273
 H         1.923769         3.222494         2.312099
 H         1.231992         0.651506         3.646850
 H        -0.276051         1.623127         3.907376
 H        -0.800342        -0.838235         2.632221
 H        -2.462580         0.750630         1.414231
 H        -0.722715        -0.834436        -0.032603
 H        -0.496731         0.872158        -0.886704
 H         2.280897         0.745119         0.636348
 H        -0.952017         2.975178         0.610387
 H        -1.379305         2.574384         2.294305
