19
Iteration:  4404charge 0 multiplicity 1
 O         1.726284         2.615866         1.530565
 C         0.611683         1.839173         1.863290
 C         0.385482         1.165731         3.191948
 C        -0.402705         0.064633         2.384081
 C        -1.361720         0.894186         1.295535
 C        -0.456480         0.367408         0.136423
 C         0.627645         0.367003         1.167680
 O         1.911811        -0.153202         0.888977
 C        -0.797961         2.288570         1.439022
 H         1.768162         3.407960         2.073241
 H         1.212838         0.619624         3.659695
 H        -0.183210         1.724417         3.920233
 H        -0.683899        -1.010016         2.717432
 H        -2.419423         0.799000         1.336752
 H        -0.730327        -0.740793        -0.097509
 H        -0.326561         0.999223        -0.787455
 H         2.537916         0.609629         0.522520
 H        -0.781801         2.814769         0.493962
 H        -1.287622         2.914252         2.223695
