19
Iteration:  1299charge 0 multiplicity 1
 O         1.658436         2.752599         1.618698
 C         0.675038         1.783063         1.888510
 C         0.314190         0.895684         3.222248
 C        -0.352209         0.044402         2.186894
 C        -1.323661         0.902817         1.332686
 C        -0.532095         0.543492         0.097673
 C         0.650570         0.479363         1.029276
 O         1.910418        -0.149118         0.825702
 C        -0.747646         2.302176         1.685098
 H         2.311055         2.702194         2.343948
 H         1.246718         0.400592         3.501317
 H        -0.177526         1.478718         3.990297
 H        -0.655712        -1.051264         2.404739
 H        -2.358775         0.720292         1.487185
 H        -0.854155        -0.441359        -0.277674
 H        -0.355255         1.212304        -0.750469
 H         1.944005        -0.503683        -0.132870
 H        -0.748323         3.055948         0.885225
 H        -1.079202         2.754587         2.640433
