19
Iteration:  3120
 O         1.752986         2.737746         1.688356
 C         0.632766         1.800727         1.930662
 C         0.442815         1.134778         3.211544
 C        -0.473642         0.077542         2.276111
 C        -1.403043         0.849024         1.283810
 C        -0.414664         0.400653         0.134917
 C         0.673787         0.332729         1.097327
 O         1.860363        -0.240076         0.744065
 C        -0.795019         2.357687         1.579003
 H         1.393045         3.117168         0.880673
 H         1.358216         0.584620         3.483146
 H         0.026343         1.627949         4.135132
 H        -0.791822        -0.858759         2.701202
 H        -2.563269         0.692191         1.272088
 H        -0.805632        -0.523824        -0.380470
 H        -0.072085         1.144206        -0.633086
 H         2.520377         0.395608         0.827137
 H        -1.010317         2.975987         0.639375
 H        -1.235881         2.827220         2.511168
