19
Iteration:  3937charge 0 multiplicity 1
 O         1.791946         2.574420         1.632077
 C         0.590575         1.938985         1.857578
 C         0.379177         1.034353         3.256364
 C        -0.310797         0.091067         2.276420
 C        -1.385185         0.900352         1.324046
 C        -0.452443         0.274011         0.140242
 C         0.606755         0.441971         1.096391
 O         1.813192        -0.110547         0.793289
 C        -0.782679         2.386829         1.454461
 H         2.059323         3.078514         2.417957
 H         1.349616         0.761559         3.600550
 H        -0.306644         1.450384         4.036641
 H        -0.536954        -1.018606         2.596935
 H        -2.466029         0.862486         1.403437
 H        -0.822015        -0.822008         0.094627
 H        -0.429611         0.655940        -0.980514
 H         2.530762         0.549960         0.984819
 H        -0.918440         2.655800         0.409942
 H        -1.300986         2.981279         2.269360
