19
Iteration:  3921
 O         1.816759         2.673296         1.677139
 C         0.598951         1.852582         1.930040
 C         0.315052         1.120232         3.304435
 C        -0.297770         0.106796         2.331485
 C        -1.326067         0.897030         1.281805
 C        -0.585513         0.290045         0.155887
 C         0.660963         0.506249         1.105828
 O         1.883041        -0.241782         0.700596
 C        -0.860767         2.337043         1.397715
 H         2.208796         2.879657         2.518133
 H         1.248469         0.605883         3.725603
 H        -0.213479         1.629744         4.105995
 H        -0.555545        -0.889105         2.558151
 H        -2.393514         0.593891         1.287506
 H        -0.632030        -0.745404        -0.045167
 H        -0.623474         0.680401        -0.801715
 H         2.467564         0.410564         0.440008
 H        -0.692242         3.000515         0.523249
 H        -1.483276         2.997474         2.066274
