19
Iteration:  2376charge 0 multiplicity 1
 O         1.811924         2.467934         1.632951
 C         0.591227         1.711770         1.860800
 C         0.473694         1.074853         3.137241
 C        -0.449644         0.096478         2.291086
 C        -1.371272         0.926773         1.269902
 C        -0.495207         0.407555         0.107075
 C         0.613074         0.409882         1.085931
 O         1.925460         0.037168         0.922923
 C        -0.859417         2.300412         1.569258
 H         1.519021         3.120047         0.978640
 H         1.480379         0.642755         3.391722
 H        -0.086053         1.581559         3.899776
 H        -0.801138        -0.929267         2.654640
 H        -2.422313         0.696877         1.220843
 H        -0.953199        -0.542574        -0.321522
 H        -0.299464         1.283738        -0.727934
 H         2.641117         0.648123         1.335087
 H        -1.081844         3.062242         0.812440
 H        -1.233281         2.603761         2.521901
