19
Iteration:  2204
 O         1.883763         2.470169         1.734790
 C         0.667071         1.829877         1.886574
 C         0.237470         1.055694         3.225083
 C        -0.369213         0.095687         2.267848
 C        -1.362387         0.862147         1.327925
 C        -0.498953         0.280243         0.062833
 C         0.621239         0.542231         1.071157
 O         1.877419         0.081271         0.708415
 C        -0.811451         2.299356         1.594316
 H         1.938108         2.889852         0.846214
 H         1.062766         0.344445         3.743863
 H        -0.305849         1.667142         4.011423
 H        -0.669107        -0.874249         2.562682
 H        -2.466237         0.972237         1.400868
 H        -0.569482        -0.868931         0.110563
 H        -0.485099         0.596161        -1.001534
 H         2.580581         0.414198         1.344375
 H        -1.013307         3.090142         0.790445
 H        -1.464342         2.753742         2.381414
