19
Iteration:  2912charge 0 multiplicity 1
 O         1.784109         2.621766         1.747669
 C         0.615360         1.820348         1.906609
 C         0.360254         1.050219         3.223667
 C        -0.406344         0.057127         2.379061
 C        -1.369231         0.855215         1.339202
 C        -0.585037         0.416487         0.153763
 C         0.645655         0.342196         1.062803
 O         1.916118        -0.106144         0.667283
 C        -0.728128         2.318670         1.485312
 H         1.633488         3.499903         1.323627
 H         1.210508         0.656102         3.789268
 H        -0.239754         1.658106         3.941646
 H        -0.709124        -0.879481         2.777274
 H        -2.470867         0.744546         1.284893
 H        -0.853007        -0.572237        -0.397402
 H        -0.328455         1.090844        -0.749985
 H         2.414192         0.666918         0.694813
 H        -0.475237         2.821857         0.499796
 H        -1.187086         3.117593         2.108298
