19
Iteration:  2711charge 0 multiplicity 1
 O         1.731043         2.604730         1.611460
 C         0.617057         1.839170         1.845772
 C         0.334759         1.071559         3.235135
 C        -0.273771         0.022017         2.237723
 C        -1.377353         0.876595         1.318934
 C        -0.552725         0.426851         0.045601
 C         0.578913         0.437195         1.076347
 O         1.962477         0.017833         0.905872
 C        -0.793491         2.345819         1.589252
 H         2.386198         1.873933         1.555648
 H         1.301434         0.848002         3.720471
 H        -0.431850         1.438029         3.942803
 H        -0.560354        -1.126670         2.366585
 H        -2.436337         0.799867         1.262853
 H        -0.871186        -0.633537        -0.245020
 H        -0.564857         1.236412        -0.784076
 H         2.330620        -0.922719         1.100086
 H        -0.849913         2.849952         0.625881
 H        -1.212893         2.849386         2.504823
