19
Iteration:  1114charge 0 multiplicity 1
 O         1.800015         2.653428         2.134211
 C         0.619525         1.903173         1.931231
 C         0.542067         1.006437         3.118051
 C        -0.320035         0.094997         2.231802
 C        -1.339934         0.894057         1.316813
 C        -0.666687         0.305107         0.070577
 C         0.581929         0.414530         0.990806
 O         1.799126        -0.130380         0.651698
 C        -0.772038         2.329900         1.459202
 H         2.033843         3.409594         1.569341
 H         1.514892         0.470404         3.206166
 H         0.075554         1.556949         3.898184
 H        -0.618791        -1.053998         2.461876
 H        -2.456020         0.619836         1.500346
 H        -1.018754        -0.737736        -0.102069
 H        -0.826998         0.878479        -0.840340
 H         2.292620         0.569780         0.088574
 H        -0.488946         2.880965         0.561843
 H        -1.246343         3.044090         2.186960
