19
Iteration:  1975charge 0 multiplicity 1
 O         1.721609         2.822763         1.855993
 C         0.634480         1.871319         1.938017
 C         0.378564         1.012881         3.093080
 C        -0.309462         0.081871         2.233414
 C        -1.308195         0.923929         1.258870
 C        -0.558087         0.446586         0.033538
 C         0.661092         0.358287         1.067271
 O         1.900605        -0.237370         0.710236
 C        -0.808155         2.349315         1.689671
 H         1.833675         3.067979         0.913626
 H         1.368419         0.525825         3.410763
 H        -0.184351         1.399897         3.903634
 H        -0.456330        -1.045280         2.424982
 H        -2.402154         0.658928         1.372849
 H        -0.905926        -0.650523        -0.010537
 H        -0.420244         0.970914        -0.940028
 H         1.921610        -1.188526         0.949552
 H        -0.970243         3.246279         1.041888
 H        -1.430737         2.519471         2.623074
