19
Iteration:   866
 O         1.701743         2.715603         1.673971
 C         0.636961         1.745821         1.918388
 C         0.422522         0.832679         3.194226
 C        -0.358379        -0.017780         2.183664
 C        -1.289147         0.943585         1.283230
 C        -0.613004         0.531959         0.010297
 C         0.578117         0.498463         1.051760
 O         1.945292        -0.049189         0.913700
 C        -0.729980         2.343543         1.730678
 H         1.912942         2.699242         0.723408
 H         1.185140         0.145758         3.564484
 H        -0.174896         1.398981         3.986575
 H        -0.744435        -1.049782         2.420398
 H        -2.479650         0.866082         1.554335
 H        -0.628223        -0.517620        -0.425699
 H        -0.521072         1.265107        -0.926701
 H         1.910162        -0.582191         0.139029
 H        -0.809560         3.181153         0.924911
 H        -1.176548         2.789270         2.693002
