19
Iteration:  3674charge 0 multiplicity 1
 O         1.695040         2.707474         1.565045
 C         0.669053         1.852498         1.864654
 C         0.534436         0.970881         3.180425
 C        -0.324159         0.032617         2.252907
 C        -1.383450         0.917877         1.271871
 C        -0.568884         0.488217         0.017076
 C         0.639057         0.378169         1.051862
 O         1.828731        -0.225672         1.019713
 C        -0.809192         2.333505         1.569139
 H         1.724323         3.419202         2.203415
 H         1.472367         0.570905         3.679076
 H        -0.048037         1.457585         3.975853
 H        -0.633312        -0.937914         2.561323
 H        -2.486245         0.703981         1.318435
 H        -0.820369        -0.541830        -0.190246
 H        -0.605720         1.162461        -0.800037
 H         2.641083         0.367667         0.772485
 H        -0.904485         2.930791         0.712662
 H        -1.217138         2.855658         2.424933
