19
Iteration:   977charge 0 multiplicity 1
 O         1.782345         2.605243         1.938768
 C         0.647634         1.780943         1.940915
 C         0.436738         0.921894         3.283826
 C        -0.351353         0.035811         2.275820
 C        -1.336503         0.923039         1.317072
 C        -0.583597         0.438994         0.097008
 C         0.600329         0.439120         1.029576
 O         1.831839        -0.091632         0.561254
 C        -0.769235         2.337898         1.519484
 H         1.600569         3.507116         1.592346
 H         1.332167         0.426067         3.448861
 H        -0.137214         1.413141         4.088787
 H        -0.608572        -0.919297         2.536955
 H        -2.414839         0.780156         1.310479
 H        -0.787681        -0.541220        -0.342664
 H        -0.561412         1.177578        -0.741798
 H         2.301229         0.769442         0.283655
 H        -0.704363         2.883844         0.543612
 H        -0.987899         3.131467         2.234984
