19
Iteration:   172
 O         1.712606         2.720295         1.868080
 C         0.562250         1.846709         1.971275
 C         0.427363         0.889221         3.184496
 C        -0.292652        -0.030773         2.217981
 C        -1.331777         0.906980         1.299977
 C        -0.588296         0.499749         0.019354
 C         0.613150         0.431873         1.075490
 O         1.857167        -0.114625         0.713863
 C        -0.754324         2.367641         1.549934
 H         2.496952         2.142768         2.055260
 H         1.467453         0.540995         3.490497
 H        -0.056205         1.220870         4.148123
 H        -0.565140        -1.111758         2.377320
 H        -2.477413         0.683378         1.427654
 H        -0.865436        -0.558979        -0.410658
 H        -0.513345         1.234839        -0.810986
 H         2.310569         0.676795         0.381415
 H        -0.504636         2.847936         0.579484
 H        -1.456962         3.088560         2.146866
