19
Iteration:   626charge 0 multiplicity 1
 O         1.749237         2.743701         1.982273
 C         0.737412         1.870433         1.875540
 C         0.436200         0.943655         3.187281
 C        -0.301393         0.047396         2.197997
 C        -1.348521         0.854928         1.392101
 C        -0.608789         0.515298         0.064336
 C         0.608617         0.470252         1.033964
 O         1.811626        -0.293997         0.611501
 C        -0.758800         2.295155         1.538602
 H         1.564386         3.513443         1.394198
 H         1.394156         0.571834         3.601107
 H        -0.142839         1.428870         4.010457
 H        -0.466686        -1.009573         2.532731
 H        -2.566973         0.728548         1.484377
 H        -0.908337        -0.438223        -0.431782
 H        -0.627057         1.198700        -0.777096
 H         2.406350         0.387342         0.847850
 H        -0.877997         2.914019         0.588587
 H        -1.335075         2.924748         2.288591
