19
Iteration:  1783charge 0 multiplicity 1
 O         1.606759         2.793322         1.660458
 C         0.623728         1.821486         1.893809
 C         0.545725         0.898793         3.231039
 C        -0.294848         0.013043         2.191203
 C        -1.284380         0.873300         1.351942
 C        -0.565115         0.687521        -0.044700
 C         0.655774         0.454439         1.069557
 O         1.852746        -0.221185         0.918292
 C        -0.814548         2.283654         1.635692
 H         2.225631         2.152318         1.233731
 H         1.563390         0.524501         3.604308
 H        -0.019607         1.385728         4.089997
 H        -0.453936        -1.076658         2.175472
 H        -2.460147         0.636908         1.471010
 H        -0.802309        -0.263027        -0.768313
 H        -0.626772         1.747247        -0.569187
 H         1.631095        -1.105505         0.732698
 H        -0.940533         3.034034         0.834295
 H        -1.278768         2.822259         2.512090
