19
Iteration:  2361charge 0 multiplicity 1
 O         1.828794         2.545411         1.687903
 C         0.625437         1.867463         1.765713
 C         0.359735         1.023326         3.122692
 C        -0.413948         0.098763         2.237820
 C        -1.344620         0.908028         1.309899
 C        -0.528749         0.301241         0.054603
 C         0.593094         0.376053         1.066385
 O         1.950606        -0.020105         0.884222
 C        -0.853742         2.363045         1.666196
 H         1.864794         3.327355         1.118024
 H         1.157105         0.461315         3.565308
 H         0.095080         1.628431         4.024112
 H        -0.772630        -0.967976         2.520886
 H        -2.434036         0.813864         1.396632
 H        -0.747483        -0.736628         0.005354
 H        -0.521310         0.695792        -0.923455
 H         2.491209         0.604989         1.460641
 H        -0.995049         3.097798         0.891378
 H        -1.263917         2.800141         2.616366
