19
Iteration:  4165
 O         1.686979         2.726748         1.575096
 C         0.632754         1.869949         1.853649
 C         0.453197         1.055404         3.197343
 C        -0.368602         0.127793         2.239924
 C        -1.359762         0.858850         1.280902
 C        -0.565425         0.295558         0.064206
 C         0.666532         0.431071         1.060858
 O         1.844327        -0.262264         0.958366
 C        -0.731450         2.387952         1.528657
 H         1.870587         3.142655         2.434741
 H         1.400072         0.672299         3.561760
 H        -0.028533         1.692576         4.017265
 H        -0.585672        -0.968799         2.526846
 H        -2.435970         0.688614         1.319964
 H        -0.791357        -0.807885        -0.079919
 H        -0.515706         0.883611        -0.849473
 H         2.442889         0.417751         1.243325
 H        -0.712804         3.073231         0.702177
 H        -1.287748         2.839990         2.385685
