19
Iteration:  1550charge 0 multiplicity 1
 O         1.768300         2.684612         1.883876
 C         0.653849         1.793642         1.879415
 C         0.302960         0.997210         3.137556
 C        -0.308854         0.049260         2.238744
 C        -1.370451         0.891003         1.419994
 C        -0.591042         0.378281         0.136054
 C         0.632125         0.452791         0.960115
 O         1.888270        -0.060007         0.704989
 C        -0.698094         2.372866         1.479829
 H         2.102540         2.643104         2.797435
 H         1.180238         0.591255         3.622593
 H        -0.369066         1.572682         3.808436
 H        -0.295675        -1.011977         2.496070
 H        -2.379268         0.821187         1.647196
 H        -0.879268        -0.654457        -0.067655
 H        -0.684407         0.862394        -0.901845
 H         1.800439        -0.530688        -0.098873
 H        -0.750185         2.863509         0.521584
 H        -1.085902         3.025985         2.246171
