19
Iteration:  4930charge 0 multiplicity 1
 O         1.813281         2.644112         1.497082
 C         0.620714         1.883383         1.862726
 C         0.336450         1.090076         3.241393
 C        -0.420059         0.102932         2.336588
 C        -1.358661         0.862004         1.249641
 C        -0.492551         0.278123         0.131085
 C         0.661057         0.374407         1.157485
 O         1.906548        -0.104617         0.928744
 C        -0.808140         2.303688         1.447068
 H         1.823622         3.459338         2.040564
 H         1.100376         0.574841         3.709574
 H        -0.147158         1.591547         4.077008
 H        -0.819209        -0.770259         2.664777
 H        -2.403290         0.700826         1.477433
 H        -0.606105        -0.785066         0.030830
 H        -0.506676         0.758419        -0.886899
 H         2.314925         0.713411         0.635909
 H        -0.726380         2.931921         0.548247
 H        -1.421444         2.840895         2.284918
