19
Iteration:  4163
 O         1.700589         2.725998         1.565847
 C         0.638151         1.874798         1.838983
 C         0.437530         1.050339         3.194166
 C        -0.370043         0.113743         2.239823
 C        -1.353822         0.860724         1.275324
 C        -0.558248         0.287920         0.078401
 C         0.659873         0.439238         1.061352
 O         1.829911        -0.247186         0.965401
 C        -0.726925         2.381125         1.545049
 H         1.892711         3.138408         2.446364
 H         1.419213         0.657462         3.553133
 H        -0.009041         1.647148         4.032362
 H        -0.624120        -0.949462         2.521410
 H        -2.475356         0.685315         1.336986
 H        -0.749869        -0.828687        -0.122170
 H        -0.533245         0.897242        -0.840171
 H         2.468028         0.491221         1.247125
 H        -0.716309         3.043122         0.714083
 H        -1.294782         2.847586         2.318334
