19
Iteration:  4111charge 0 multiplicity 1
 O         1.679605         2.500748         1.555293
 C         0.554617         1.787552         1.822000
 C         0.330442         1.145680         3.172902
 C        -0.296359         0.080280         2.330700
 C        -1.292900         0.913009         1.350749
 C        -0.511437         0.427578         0.063639
 C         0.645521         0.353337         1.128646
 O         1.922399        -0.061983         0.888869
 C        -0.768102         2.308440         1.484379
 H         2.108368         2.756018         2.409477
 H         1.255247         0.926835         3.678019
 H        -0.336690         1.737839         3.895057
 H        -0.599683        -0.930278         2.849986
 H        -2.376582         0.807444         1.416405
 H        -0.921070        -0.598231        -0.281406
 H        -0.378262         0.874968        -0.932286
 H         2.396270         0.726440         1.044002
 H        -0.924182         3.004924         0.648740
 H        -1.209827         2.863881         2.432845
