19
Iteration:  4775
 O         1.793846         2.619469         1.504027
 C         0.624935         1.885568         1.804725
 C         0.372237         1.075495         3.237839
 C        -0.336316         0.110323         2.385718
 C        -1.327863         0.844681         1.298108
 C        -0.490607         0.287769         0.133250
 C         0.583559         0.448867         1.101884
 O         1.905164        -0.120707         0.959633
 C        -0.920514         2.354461         1.389374
 H         2.205163         2.988674         2.302304
 H         1.337395         0.613615         3.478269
 H        -0.144058         1.614008         4.060145
 H        -0.640568        -1.013887         2.537621
 H        -2.487971         0.708382         1.334094
 H        -0.625013        -0.779730         0.104509
 H        -0.421916         0.825981        -0.824036
 H         2.508735         0.652305         1.248890
 H        -0.906955         2.816243         0.401740
 H        -1.487937         2.895691         2.233040
