19
Iteration:  1150charge 0 multiplicity 1
 O         1.706720         2.672514         1.706843
 C         0.656902         1.761132         1.907666
 C         0.426109         0.871718         3.160507
 C        -0.373302        -0.000142         2.194610
 C        -1.342663         0.916325         1.320496
 C        -0.568469         0.575083         0.101608
 C         0.613453         0.466028         1.025221
 O         1.855771        -0.147449         0.806270
 C        -0.695656         2.318214         1.686853
 H         1.375125         3.344580         1.079066
 H         1.207001         0.404214         3.699366
 H        -0.124856         1.420877         3.995801
 H        -0.531064        -0.983331         2.215954
 H        -2.346925         0.689184         1.469122
 H        -0.746277        -0.446317        -0.220284
 H        -0.577523         1.245761        -0.815884
 H         2.581036         0.587868         0.801411
 H        -0.737048         2.992076         0.788484
 H        -1.109205         2.826234         2.529663
