19
Iteration:  3620
 O         1.805480         2.491896         1.710272
 C         0.619404         1.850838         1.921806
 C         0.223062         1.139548         3.249308
 C        -0.290954         0.065935         2.311885
 C        -1.312650         0.957713         1.298676
 C        -0.586698         0.266099         0.129604
 C         0.654518         0.360398         1.066183
 O         1.894625        -0.042002         0.646969
 C        -0.730686         2.362492         1.527395
 H         1.766652         3.451128         1.795455
 H         1.197855         0.743078         3.730837
 H        -0.440412         1.715380         3.946146
 H        -0.474569        -0.978012         2.467535
 H        -2.421911         0.870764         1.543151
 H        -0.873259        -0.786994         0.033514
 H        -0.719760         0.658472        -0.817084
 H         2.652877         0.581264         1.013511
 H        -0.873732         3.066984         0.710070
 H        -1.335084         2.824239         2.308076
