19
Iteration:  3911charge 0 multiplicity 1
 O         1.747076         2.719618         1.729252
 C         0.661579         1.855193         1.910897
 C         0.334089         1.172205         3.202120
 C        -0.342591         0.132073         2.270586
 C        -1.344549         0.821853         1.335524
 C        -0.559822         0.350802         0.123047
 C         0.647699         0.397632         1.123674
 O         1.874398        -0.245281         0.718866
 C        -0.752090         2.296334         1.418535
 H         2.193848         2.826387         2.577278
 H         1.212184         0.675956         3.730078
 H        -0.260523         1.799160         3.830317
 H        -0.744969        -0.718504         2.677365
 H        -2.418202         0.651311         1.562679
 H        -0.667401        -0.712913         0.023074
 H        -0.675162         0.918742        -0.740121
 H         2.330393         0.467430         0.327692
 H        -0.773564         2.800344         0.429989
 H        -1.283944         2.775518         2.305909
