19
Iteration:  4491charge 0 multiplicity 1
 O         1.684273         2.743965         1.609968
 C         0.637238         1.917470         1.866928
 C         0.421543         1.165147         3.235438
 C        -0.320158         0.141002         2.264342
 C        -1.373694         0.818542         1.282870
 C        -0.490227         0.309736         0.145853
 C         0.691614         0.480292         1.164750
 O         1.822267        -0.346168         0.873796
 C        -0.811085         2.284931         1.406129
 H         1.732035         3.399358         2.329114
 H         1.281381         0.689989         3.622491
 H        -0.035911         1.677041         4.080310
 H        -0.600277        -0.889356         2.594665
 H        -2.334461         0.549689         1.246462
 H        -0.748931        -0.704400         0.218403
 H        -0.501388         0.925926        -0.711715
 H         2.557384         0.062644         0.495339
 H        -0.583543         2.832033         0.548407
 H        -1.350905         3.070766         1.950332
