19
Iteration:   425
 O         1.558892         2.887431         1.641965
 C         0.672012         1.759602         1.879066
 C         0.517887         0.787060         3.199822
 C        -0.404925         0.057247         2.181702
 C        -1.306135         0.949282         1.231947
 C        -0.469849         0.594719        -0.009922
 C         0.640151         0.479788         1.030969
 O         1.878352        -0.197784         0.885327
 C        -0.792358         2.289270         1.845821
 H         2.495720         2.645161         1.625926
 H         1.316781         0.159646         3.515861
 H         0.085196         1.209436         4.120194
 H        -0.763767        -0.950496         2.108464
 H        -2.342031         0.832069         1.317847
 H        -0.606763        -0.406248        -0.399827
 H        -0.400789         1.261721        -0.866892
 H         1.691133        -1.000755         0.297784
 H        -0.935171         3.146086         1.206826
 H        -1.235086         2.469434         2.838953
