19
Iteration:  2688charge 0 multiplicity 1
 O         1.641426         2.656627         1.600365
 C         0.626262         1.762700         1.828629
 C         0.423775         1.043313         3.186755
 C        -0.363319         0.086101         2.320862
 C        -1.351767         0.800992         1.365778
 C        -0.469734         0.544289         0.060364
 C         0.644045         0.422926         1.115035
 O         1.951063        -0.055493         0.891255
 C        -0.835961         2.315430         1.485161
 H         2.385324         2.302398         2.128082
 H         1.353047         0.582335         3.512298
 H        -0.088125         1.639511         3.990361
 H        -0.867151        -0.931236         2.665936
 H        -2.446120         0.592210         1.476669
 H        -0.922310        -0.332987        -0.495677
 H        -0.255249         1.504698        -0.562460
 H         1.884576        -0.943705         0.617836
 H        -0.833815         2.839412         0.547565
 H        -1.182809         2.817955         2.412878
