19
Iteration:    16
 O         1.862883         2.646859         1.781214
 C         0.601716         1.786982         1.900946
 C         0.444089         1.017949         3.136552
 C        -0.376988        -0.032511         2.320723
 C        -1.451196         0.759012         1.320814
 C        -0.568591         0.501790        -0.004934
 C         0.537218         0.386755         1.067641
 O         1.835861         0.041322         0.675746
 C        -0.729076         2.288262         1.580415
 H         2.209026         2.708752         2.709919
 H         1.425190         0.520979         3.410475
 H         0.050412         1.474777         4.099976
 H        -0.558585        -1.068066         2.600502
 H        -2.470431         0.613562         1.428574
 H        -0.715966        -0.316550        -0.706796
 H        -0.368492         1.478768        -0.521085
 H         2.315403         0.552481         1.368651
 H        -0.789526         2.940924         0.632776
 H        -1.180873         2.970965         2.302417
