19
Iteration:  3656charge 0 multiplicity 1
 O         1.768926         2.616133         1.647632
 C         0.654192         1.790287         1.871510
 C         0.416561         1.025583         3.152090
 C        -0.405537         0.136765         2.269599
 C        -1.353393         0.844854         1.395910
 C        -0.579336         0.413756         0.069479
 C         0.574667         0.502224         1.081976
 O         1.861351        -0.140132         0.927211
 C        -0.747997         2.244221         1.468842
 H         1.594076         3.404077         2.156133
 H         1.334042         0.492536         3.139041
 H         0.357989         1.612018         4.102582
 H        -0.472942        -1.003154         2.423144
 H        -2.406530         0.829346         1.467558
 H        -0.688900        -0.558500        -0.423404
 H        -0.551714         1.162225        -0.752432
 H         2.426886         0.726200         0.754506
 H        -0.555432         2.780490         0.466851
 H        -1.249789         2.826859         2.272155
