19
Iteration:  1004
 O         1.816416         2.586568         1.778569
 C         0.657803         1.797880         1.895686
 C         0.419534         0.888187         3.136213
 C        -0.309162         0.001119         2.096257
 C        -1.341730         0.921807         1.388650
 C        -0.636675         0.551206         0.034121
 C         0.591734         0.484826         0.991672
 O         1.875958        -0.086957         0.844759
 C        -0.850370         2.322921         1.700669
 H         1.910805         2.816224         0.830438
 H         1.300676         0.489333         3.778192
 H        -0.234125         1.397983         3.897394
 H        -0.465845        -1.159919         2.242168
 H        -2.446164         0.726199         1.552930
 H        -0.763776        -0.475846        -0.337854
 H        -0.665923         1.363900        -0.702130
 H         2.404313         0.778068         0.866943
 H        -0.910978         2.995570         0.838090
 H        -0.993060         2.843604         2.658463
