19
Iteration:  2657charge 0 multiplicity 1
 O         1.579446         2.918866         1.694854
 C         0.682687         1.856815         1.906971
 C         0.447187         0.975344         3.166606
 C        -0.303984         0.074590         2.228132
 C        -1.294571         0.914778         1.228665
 C        -0.524392         0.283888         0.069522
 C         0.628187         0.499048         1.100313
 O         1.852846        -0.252693         0.905361
 C        -0.738320         2.334471         1.575552
 H         2.491364         2.582350         1.803685
 H         1.375323         0.505058         3.569540
 H        -0.138950         1.453172         3.980237
 H        -0.820614        -0.952002         2.506040
 H        -2.334352         0.746776         1.305714
 H        -1.110395        -0.675806         0.008531
 H        -0.434035         0.674858        -1.007312
 H         1.902667        -0.854725         0.067041
 H        -0.694545         3.226905         0.925362
 H        -1.329409         2.770355         2.445465
