19
Iteration:  4528charge 0 multiplicity 1
 O         1.682349         2.805022         1.685509
 C         0.621894         1.881935         1.775358
 C         0.407604         1.194559         3.092644
 C        -0.287033         0.116626         2.312688
 C        -1.318663         0.867510         1.343688
 C        -0.560241         0.306326         0.161176
 C         0.638381         0.265643         1.122804
 O         1.868668        -0.309339         0.890879
 C        -0.729615         2.343356         1.416250
 H         1.669668         3.194939         2.572329
 H         1.258422         0.878745         3.753760
 H        -0.249999         1.754732         3.807097
 H        -0.487107        -0.911641         2.610196
 H        -2.493636         0.673868         1.442364
 H        -1.031893        -0.708681        -0.348573
 H        -0.615827         0.649765        -0.905174
 H         2.550561         0.347211         1.012804
 H        -0.886348         2.896219         0.431835
 H        -1.208184         2.966876         2.215441
