19
Iteration:  4753charge 0 multiplicity 1
 O         1.690959         2.618900         1.508894
 C         0.611086         1.815464         1.774030
 C         0.414505         1.180943         3.163131
 C        -0.375054         0.126764         2.275558
 C        -1.376233         0.787753         1.357252
 C        -0.545947         0.340290         0.098110
 C         0.579362         0.343452         1.111112
 O         1.974347        -0.040523         1.106144
 C        -0.740103         2.268258         1.434766
 H         2.280848         2.629066         2.286128
 H         1.301704         0.596821         3.423449
 H        -0.214673         1.776072         3.869571
 H        -0.657270        -0.988493         2.639786
 H        -2.544959         0.772289         1.331819
 H        -1.026492        -0.557587        -0.216660
 H        -0.604144         1.079119        -0.710631
 H         2.327555         0.769871         0.703255
 H        -0.611606         2.767575         0.466297
 H        -1.120091         2.931580         2.312451
