19
Iteration:  1961charge 0 multiplicity 1
 O         1.676833         2.852679         1.860805
 C         0.686118         1.867285         1.797969
 C         0.522203         0.995481         3.165767
 C        -0.342501         0.031513         2.158129
 C        -1.364020         0.906474         1.297494
 C        -0.496361         0.485971         0.042114
 C         0.632398         0.430967         0.979469
 O         1.885989        -0.277798         0.859306
 C        -0.885829         2.298192         1.697888
 H         1.997701         3.021996         0.955289
 H         1.466251         0.484472         3.445311
 H         0.110310         1.543557         4.055269
 H        -0.673917        -0.981017         2.453671
 H        -2.392292         0.804121         1.246388
 H        -0.805488        -0.520471        -0.461149
 H        -0.566066         1.235622        -0.800696
 H         1.623853        -1.201378         0.801903
 H        -1.175668         3.042275         0.940049
 H        -1.024277         2.579953         2.696801
