19
Iteration:  1598charge 0 multiplicity 1
 O         1.791413         2.641857         1.749585
 C         0.671870         1.810849         1.891386
 C         0.385031         0.979606         3.176689
 C        -0.400020         0.039559         2.186114
 C        -1.400399         0.938793         1.349843
 C        -0.493074         0.452982         0.045629
 C         0.628269         0.465379         1.070697
 O         1.898542        -0.044753         0.736637
 C        -0.723473         2.265494         1.668935
 H         1.473134         3.544084         1.956947
 H         1.256211         0.365736         3.576270
 H        -0.251277         1.374977         3.982923
 H        -0.846947        -0.949550         2.309234
 H        -2.620871         0.814596         1.485397
 H        -0.578173        -0.631469        -0.274074
 H        -0.465310         1.057655        -0.851819
 H         1.650516        -1.000047         0.622654
 H        -0.931167         2.968636         0.697284
 H        -1.145121         2.865085         2.556098
