19
Iteration:   316
 O         1.746304         2.705071         1.978267
 C         0.686284         1.788437         1.965308
 C         0.429948         0.916362         3.218484
 C        -0.331252         0.010695         2.172539
 C        -1.353806         0.822720         1.347958
 C        -0.573907         0.550860         0.078480
 C         0.638595         0.488216         1.023394
 O         1.799764        -0.001676         0.595912
 C        -0.744406         2.243600         1.500966
 H         2.085628         2.596018         1.053959
 H         1.324794         0.503241         3.649364
 H        -0.234978         1.395228         3.992643
 H        -0.753339        -0.869434         2.269356
 H        -2.366502         0.689688         1.499419
 H        -0.788504        -0.465370        -0.239912
 H        -0.587921         1.368145        -0.700159
 H         2.230473        -0.686864         1.216950
 H        -0.894568         2.843559         0.601830
 H        -1.182160         2.918494         2.300361
