19
Iteration:  4428
 O         1.745045         2.509364         1.415691
 C         0.568346         1.899816         1.836005
 C         0.396946         1.050245         3.274476
 C        -0.310003         0.086825         2.286322
 C        -1.347154         0.874161         1.302972
 C        -0.499242         0.345177         0.093741
 C         0.616478         0.472428         1.124485
 O         1.893183        -0.081675         1.051259
 C        -0.842458         2.359601         1.463114
 H         1.967435         3.341015         1.901024
 H         1.286163         0.564114         3.509509
 H        -0.191088         1.397768         4.116243
 H        -0.616712        -0.946323         2.454608
 H        -2.367405         0.667874         1.468885
 H        -0.733064        -0.758714        -0.231382
 H        -0.409509         0.920728        -0.840429
 H         2.569259         0.567336         1.181393
 H        -0.919686         2.866460         0.556380
 H        -1.206992         2.862910         2.348042
