19
Iteration:  4952charge 0 multiplicity 1
 O         1.726015         2.662790         1.627593
 C         0.594746         1.828441         1.765360
 C         0.380018         1.213083         3.148001
 C        -0.323609         0.103429         2.337116
 C        -1.351597         0.866856         1.290998
 C        -0.560986         0.238284         0.097702
 C         0.657098         0.420032         1.066256
 O         1.902850        -0.151780         0.981120
 C        -0.824473         2.305777         1.473842
 H         2.254260         2.662153         2.455233
 H         1.229931         0.843108         3.640335
 H        -0.064028         1.805682         3.938871
 H        -0.471812        -0.874376         2.607030
 H        -2.426680         0.689859         1.319086
 H        -0.898370        -0.793467        -0.044752
 H        -0.488489         0.800604        -0.892335
 H         2.600129         0.565449         0.782281
 H        -0.872134         2.842041         0.488280
 H        -1.196183         2.958311         2.325134
