19
Iteration:  2782
 O         1.695442         2.855160         1.848185
 C         0.604763         1.934347         1.836713
 C         0.354585         1.119129         3.172990
 C        -0.328793         0.027982         2.223447
 C        -1.304288         0.855624         1.371450
 C        -0.520045         0.432415         0.104268
 C         0.648230         0.425142         1.060555
 O         1.893462        -0.312392         0.830622
 C        -0.746049         2.246226         1.487589
 H         2.299598         2.594078         1.146010
 H         1.310381         0.919312         3.650845
 H        -0.365583         1.639182         3.833258
 H        -0.437056        -0.902496         2.625449
 H        -2.397662         0.575614         1.349654
 H        -0.911383        -0.521955        -0.159012
 H        -0.511076         1.150327        -0.660959
 H         1.636358        -0.850038        -0.019261
 H        -0.844733         2.754487         0.503135
 H        -1.112831         2.862644         2.311090
