19
Iteration:  1095charge 0 multiplicity 1
 O         1.811966         2.699773         2.153574
 C         0.691957         1.857630         1.849814
 C         0.380486         1.055847         3.131025
 C        -0.247325         0.053838         2.235330
 C        -1.341893         0.899452         1.357515
 C        -0.666691         0.359915         0.104376
 C         0.636411         0.482121         0.919422
 O         1.756015        -0.248391         0.586312
 C        -0.739749         2.341775         1.506803
 H         1.784770         3.461730         1.536609
 H         1.313175         0.665971         3.545699
 H        -0.354795         1.538517         3.961836
 H        -0.350654        -0.970499         2.349528
 H        -2.401349         0.765376         1.624655
 H        -0.608340        -0.730257         0.063889
 H        -0.720124         0.817724        -0.939026
 H         2.525777         0.393703         0.290988
 H        -1.131245         2.835835         0.572200
 H        -1.116218         2.777938         2.424213
