19
Iteration:  3094
 O         1.718067         2.661645         1.619778
 C         0.674743         1.767330         1.894077
 C         0.343595         1.013539         3.246118
 C        -0.331478         0.090272         2.240411
 C        -1.349691         0.891106         1.321908
 C        -0.556934         0.424258         0.090869
 C         0.670587         0.423474         1.067643
 O         1.852778        -0.107280         0.853947
 C        -0.707544         2.329508         1.544429
 H         1.542881         2.920559         0.699899
 H         1.131287         0.474502         3.832704
 H        -0.329922         1.473959         3.994885
 H        -0.462726        -0.964167         2.540461
 H        -2.381330         0.785646         1.480768
 H        -1.021235        -0.543153        -0.015547
 H        -0.578828         0.901719        -0.834557
 H         2.513821         0.398741         1.263578
 H        -0.772290         2.978022         0.684788
 H        -1.104578         2.819288         2.419716
