19
Iteration:  4527
 O         1.688788         2.814260         1.685062
 C         0.629109         1.888375         1.775909
 C         0.403008         1.197379         3.096567
 C        -0.282426         0.101822         2.312516
 C        -1.317419         0.864536         1.345242
 C        -0.556970         0.305127         0.154606
 C         0.630955         0.264221         1.122089
 O         1.860772        -0.306375         0.890922
 C        -0.732132         2.340434         1.420278
 H         1.636159         3.192911         2.574949
 H         1.244224         0.909493         3.733056
 H        -0.261850         1.773542         3.769824
 H        -0.519744        -0.913971         2.626810
 H        -2.464922         0.677328         1.424092
 H        -1.039762        -0.706434        -0.331512
 H        -0.610998         0.647057        -0.891474
 H         2.560560         0.301983         0.985145
 H        -0.846568         2.871078         0.457603
 H        -1.189734         2.962909         2.219037
