19
Iteration:  1881charge 0 multiplicity 1
 O         1.868087         2.528825         1.920707
 C         0.637910         1.820309         1.905989
 C         0.384269         1.088291         3.209966
 C        -0.334822         0.024064         2.373679
 C        -1.363080         0.872747         1.275215
 C        -0.572948         0.365714         0.051990
 C         0.549953         0.444913         1.068076
 O         1.924923         0.101669         0.623698
 C        -0.841348         2.271733         1.497252
 H         2.087888         3.004181         1.100321
 H         1.331205         0.843269         3.703564
 H        -0.287951         1.655737         3.926227
 H        -0.643125        -0.965235         2.606721
 H        -2.484443         0.680407         1.493062
 H        -0.740618        -0.709576        -0.144346
 H        -0.534961         1.110019        -0.792502
 H         1.813769        -0.816301         0.389533
 H        -0.829224         2.969583         0.648285
 H        -1.325624         2.880852         2.291427
