19
Iteration:  4155charge 0 multiplicity 1
 O         1.795993         2.725490         1.530050
 C         0.663808         1.847479         1.790521
 C         0.378819         1.033000         3.148151
 C        -0.357463         0.055421         2.260026
 C        -1.332059         0.899288         1.276749
 C        -0.499409         0.289060         0.131781
 C         0.549002         0.466721         1.099138
 O         1.798650        -0.128223         1.007837
 C        -0.764327         2.290962         1.557979
 H         2.121511         3.157924         2.356293
 H         1.269310         0.477240         3.384754
 H        -0.071221         1.404027         4.137255
 H        -0.806698        -0.982680         2.510347
 H        -2.381859         0.820447         1.423230
 H        -0.557369        -0.758586        -0.239920
 H        -0.620594         0.855463        -0.786761
 H         2.570877         0.469865         1.031120
 H        -0.806710         2.844149         0.594039
 H        -1.307832         2.962107         2.319348
