19
Iteration:   810
 O         1.824146         2.720370         2.048987
 C         0.657796         1.836229         1.899471
 C         0.442626         1.069675         3.182347
 C        -0.331654         0.081569         2.243272
 C        -1.317631         0.878214         1.324187
 C        -0.610372         0.363482         0.076498
 C         0.562687         0.393129         0.945169
 O         1.780176        -0.205168         0.554319
 C        -0.746077         2.307673         1.573211
 H         1.682356         3.535540         1.513966
 H         1.337817         0.558233         3.643510
 H        -0.203549         1.606102         3.951088
 H        -0.521220        -0.987771         2.481669
 H        -2.513538         0.796189         1.542036
 H        -0.870494        -0.717397        -0.128287
 H        -0.357974         0.961383        -0.916801
 H         2.521192         0.503983         0.731748
 H        -0.855714         2.944093         0.612490
 H        -1.189550         2.779796         2.500451
