19
Iteration:  2408
 O         1.751191         2.719234         1.647161
 C         0.638600         1.830330         1.950332
 C         0.350190         0.965919         3.223918
 C        -0.329886         0.030955         2.214890
 C        -1.299483         0.872627         1.380756
 C        -0.495336         0.447242         0.097174
 C         0.629073         0.470020         1.074073
 O         1.820077        -0.192844         0.899520
 C        -0.778719         2.332727         1.493598
 H         1.436098         2.965168         0.749211
 H         1.260511         0.707729         3.796258
 H        -0.299390         1.363424         3.987982
 H        -0.574691        -1.081990         2.466565
 H        -2.356814         0.703438         1.477147
 H        -0.778858        -0.530028        -0.353646
 H        -0.365089         1.208316        -0.773268
 H         2.507401         0.350509         0.496879
 H        -0.734619         2.842734         0.537886
 H        -1.220530         3.036741         2.174675
