19
Iteration:   825charge 0 multiplicity 1
 O         1.798757         2.567741         2.010069
 C         0.664741         1.836615         1.871325
 C         0.457339         1.043921         3.178718
 C        -0.261333         0.061717         2.253782
 C        -1.373975         0.889062         1.343054
 C        -0.600064         0.403161        -0.018398
 C         0.632858         0.452217         1.067381
 O         1.805888        -0.138937         0.670089
 C        -0.817712         2.330960         1.532934
 H         1.816656         3.310717         1.391639
 H         1.428767         0.765026         3.491373
 H         0.046154         1.568467         4.047444
 H        -0.662780        -0.926599         2.543972
 H        -2.530371         0.611478         1.423109
 H        -0.813474        -0.607255        -0.356367
 H        -0.857868         1.093183        -0.762025
 H         2.221038         0.553197         0.091947
 H        -0.889105         3.014544         0.660569
 H        -1.264869         2.923993         2.363326
