19
Iteration:  1886charge 0 multiplicity 1
 O         1.844886         2.543661         1.899533
 C         0.645994         1.827556         1.841295
 C         0.364966         1.096277         3.254538
 C        -0.381778         0.001109         2.352218
 C        -1.367995         0.867043         1.255077
 C        -0.601757         0.363918         0.050981
 C         0.616240         0.468707         1.059084
 O         1.938640         0.089267         0.637869
 C        -0.801015         2.287368         1.579913
 H         2.041612         2.982371         1.048297
 H         1.375763         0.926617         3.663062
 H        -0.220540         1.713387         3.938901
 H        -0.780029        -1.012639         2.682127
 H        -2.389816         0.690828         1.325169
 H        -0.805061        -0.737659        -0.189385
 H        -0.517618         1.003464        -0.839025
 H         1.776238        -0.863679         0.410751
 H        -0.729491         2.988353         0.719869
 H        -1.389013         2.634807         2.443314
