19
Iteration:  4520
 O         1.723637         2.865474         1.685336
 C         0.675961         1.894998         1.775830
 C         0.359209         1.214110         3.134712
 C        -0.270751         0.023372         2.319106
 C        -1.295974         0.861659         1.350227
 C        -0.550759         0.264378         0.095596
 C         0.602082         0.301560         1.090489
 O         1.813390        -0.313068         0.887420
 C        -0.761360         2.301748         1.445796
 H         1.608949         3.295413         2.550611
 H         1.349925         0.986265         3.660156
 H        -0.360341         1.874788         3.675699
 H        -0.701708        -0.890394         2.756983
 H        -2.419161         0.705385         1.369552
 H        -0.938594        -0.750933         0.075618
 H        -0.458646         0.955544        -0.814112
 H         2.617487         0.225384         0.860872
 H        -0.669441         2.821684         0.423736
 H        -1.134903         2.978488         2.243756
