19
Iteration:  3423charge 0 multiplicity 1
 O         1.850121         2.574879         1.823516
 C         0.667193         1.872219         1.880045
 C         0.380346         1.114036         3.168831
 C        -0.369481         0.093498         2.326579
 C        -1.356652         0.848024         1.316893
 C        -0.583258         0.343706         0.097402
 C         0.572950         0.455630         1.142175
 O         1.838026        -0.092744         0.724562
 C        -0.755620         2.288439         1.442184
 H         1.907169         2.854265         0.874979
 H         1.275265         0.552689         3.483849
 H        -0.037229         1.613156         3.981878
 H        -0.699766        -0.853886         2.782854
 H        -2.497837         0.749656         1.538930
 H        -0.744083        -0.685471        -0.291315
 H        -0.576933         1.121307        -0.660660
 H         2.555549         0.645503         0.770065
 H        -0.948247         2.784073         0.472256
 H        -1.320947         2.703941         2.307145
