19
Iteration:  2518charge 0 multiplicity 1
 O         1.821666         2.657567         1.678466
 C         0.591143         1.889407         1.848020
 C         0.432708         1.082613         3.230975
 C        -0.357049         0.029728         2.249068
 C        -1.374230         0.870578         1.311664
 C        -0.482025         0.396937         0.061256
 C         0.624555         0.359903         1.069601
 O         1.882737        -0.165455         0.871815
 C        -0.890035         2.328550         1.620967
 H         1.744390         3.358064         1.017034
 H         1.389739         0.642599         3.622594
 H        -0.180159         1.467937         4.037826
 H        -0.733177        -0.957836         2.625477
 H        -2.472699         0.668582         1.411659
 H        -0.665920        -0.590961        -0.351465
 H        -0.451460         0.994058        -0.796996
 H         2.321659         0.487172         0.325671
 H        -0.892414         2.982181         0.733761
 H        -1.280988         2.964268         2.391631
