19
Iteration:  1100
 O         1.816024         2.676610         2.186356
 C         0.700216         1.854751         1.831374
 C         0.406080         1.063168         3.118494
 C        -0.239131         0.065717         2.197321
 C        -1.340922         0.872173         1.351804
 C        -0.678547         0.309053         0.097310
 C         0.628677         0.512001         0.952294
 O         1.755971        -0.210055         0.596994
 C        -0.738125         2.349731         1.495224
 H         1.759920         3.402536         1.540185
 H         1.380856         0.779486         3.556475
 H        -0.035370         1.427811         3.993453
 H        -0.552832        -1.020026         2.584027
 H        -2.441974         0.997671         1.438333
 H        -0.743480        -0.795633         0.000632
 H        -0.786107         0.831983        -0.836051
 H         2.386169         0.353116         0.254347
 H        -1.074757         2.820767         0.588491
 H        -1.313662         2.803289         2.341288
