19
Iteration:  2265
 O         1.636529         2.920448         1.845803
 C         0.658269         1.907325         1.854687
 C         0.512419         0.993255         3.113284
 C        -0.256212         0.052475         2.149379
 C        -1.328630         0.849435         1.246917
 C        -0.549163         0.380724         0.037242
 C         0.673222         0.477516         1.041710
 O         1.760016        -0.440332         0.979517
 C        -0.759495         2.392255         1.612695
 H         1.408692         3.591208         1.182409
 H         1.267452         0.391766         3.576321
 H         0.132731         1.467234         4.011488
 H        -0.356641        -1.108439         2.419441
 H        -2.380393         0.711597         1.315756
 H        -0.617038        -0.649275        -0.362009
 H        -0.522857         1.177179        -0.859231
 H         2.080814        -0.307797         0.136643
 H        -0.812299         3.088919         0.779310
 H        -1.364858         2.708855         2.450748
