19
Iteration:  2362charge 0 multiplicity 1
 O         1.827357         2.535948         1.683901
 C         0.629484         1.857917         1.760913
 C         0.364858         1.024275         3.114887
 C        -0.419530         0.106472         2.243151
 C        -1.343350         0.914251         1.311118
 C        -0.520656         0.303787         0.059490
 C         0.598043         0.371988         1.075415
 O         1.952087        -0.011035         0.886745
 C        -0.860657         2.362915         1.670677
 H         1.843080         3.325814         1.117305
 H         1.164924         0.454610         3.560255
 H         0.091101         1.644194         3.993829
 H        -0.789502        -0.992401         2.507848
 H        -2.412845         0.798093         1.386543
 H        -0.762465        -0.738249        -0.019148
 H        -0.539842         0.739948        -0.962989
 H         2.437916         0.592336         1.460007
 H        -0.999539         3.084667         0.905756
 H        -1.290643         2.778372         2.602233
