19
Iteration:  4228
 O         1.743007         2.747693         1.677906
 C         0.595366         1.816116         1.899803
 C         0.400301         1.138115         3.287863
 C        -0.332757         0.187683         2.278110
 C        -1.339270         0.853648         1.293659
 C        -0.546035         0.298066         0.155315
 C         0.681047         0.480941         1.036426
 O         1.838587        -0.296239         0.791437
 C        -0.775968         2.274434         1.389816
 H         1.719958         3.349370         2.432875
 H         1.312006         0.834910         3.853643
 H        -0.287665         1.702096         3.939472
 H        -0.543804        -0.912787         2.525671
 H        -2.491704         0.843736         1.221681
 H        -0.700798        -0.833970         0.077215
 H        -0.696491         0.767602        -0.837356
 H         2.649779         0.074491         1.032571
 H        -0.622872         2.871850         0.531098
 H        -1.249914         2.876348         2.127532
