19
Iteration:  4452
 O         1.792231         2.643810         1.465755
 C         0.652869         1.782464         1.790877
 C         0.398890         1.123283         3.150063
 C        -0.394519         0.089973         2.269669
 C        -1.367202         0.846952         1.288855
 C        -0.592358         0.367480         0.118894
 C         0.632558         0.381057         1.073047
 O         1.935917        -0.101237         1.122039
 C        -0.818286         2.301603         1.555960
 H         1.746622         3.411083         2.082913
 H         1.308086         0.556498         3.442710
 H        -0.175667         1.780201         3.846220
 H        -0.774325        -0.860256         2.580468
 H        -2.480708         0.531675         1.390128
 H        -0.904307        -0.659958        -0.378695
 H        -0.521104         0.996572        -0.798457
 H         2.563583         0.691693         0.953225
 H        -0.851819         2.737722         0.529185
 H        -1.113737         2.803236         2.492152
