19
Iteration:  4114charge 0 multiplicity 1
 O         1.672469         2.477876         1.545443
 C         0.528546         1.770914         1.850871
 C         0.332828         1.161547         3.164694
 C        -0.280280         0.085531         2.336032
 C        -1.286716         0.935335         1.350307
 C        -0.546098         0.415835         0.037212
 C         0.682694         0.367329         1.134485
 O         1.930317        -0.067683         0.901138
 C        -0.789412         2.294760         1.491095
 H         2.078408         2.700753         2.379151
 H         1.270366         0.869860         3.611120
 H        -0.302763         1.667666         3.893652
 H        -0.614689        -0.838806         2.807420
 H        -2.335748         0.873195         1.379190
 H        -0.840871        -0.601189        -0.233344
 H        -0.374970         1.024624        -0.908858
 H         2.396863         0.849437         1.040919
 H        -0.885048         3.005843         0.616996
 H        -1.149414         2.888778         2.396997
