19
Iteration:  1922charge 0 multiplicity 1
 O         1.681603         2.805609         1.730105
 C         0.600930         1.814177         1.909017
 C         0.491409         0.849352         3.215562
 C        -0.316783        -0.036256         2.192575
 C        -1.361330         0.923365         1.318368
 C        -0.558380         0.495784         0.056000
 C         0.649250         0.440944         1.081469
 O         1.891938        -0.119602         0.887810
 C        -0.760398         2.361290         1.586285
 H         1.874806         2.970963         0.786156
 H         1.514488         0.437401         3.450150
 H         0.053085         1.194412         4.126925
 H        -0.756834        -1.051354         2.370616
 H        -2.538785         0.853010         1.358398
 H        -0.888922        -0.433637        -0.327068
 H        -0.417643         1.176263        -0.774451
 H         1.775643        -0.922222         0.361059
 H        -0.810616         2.977566         0.669550
 H        -1.327837         3.035446         2.306880
