19
Iteration:  3112
 O         1.744757         2.739088         1.640645
 C         0.635858         1.801224         1.870712
 C         0.393464         1.062746         3.270254
 C        -0.489819         0.077905         2.343450
 C        -1.342336         0.908499         1.290881
 C        -0.480892         0.396451         0.085755
 C         0.647836         0.416836         1.132180
 O         1.918707        -0.242949         0.734994
 C        -0.763271         2.296325         1.610831
 H         1.556031         3.134897         0.768052
 H         1.267873         0.549790         3.620154
 H        -0.012512         1.643004         4.089623
 H        -0.961317        -0.879134         2.699273
 H        -2.437616         0.751855         1.162371
 H        -0.544431        -0.619751        -0.354113
 H        -0.355072         1.209712        -0.786047
 H         2.519206         0.439084         0.903470
 H        -0.924935         2.954824         0.705987
 H        -1.343049         2.740808         2.448264
