19
Iteration:  1567charge 0 multiplicity 1
 O         1.745786         2.609704         1.883945
 C         0.604022         1.828373         1.920758
 C         0.434832         1.060759         3.261402
 C        -0.359322         0.017150         2.297649
 C        -1.333348         0.963675         1.323910
 C        -0.584961         0.395124         0.106686
 C         0.632143         0.376753         1.105128
 O         1.926682        -0.017111         0.570953
 C        -0.741220         2.334151         1.443459
 H         1.837495         3.052894         2.740335
 H         1.383162         0.549179         3.574908
 H        -0.109021         1.420753         4.138517
 H        -0.986043        -0.881350         2.465000
 H        -2.467528         0.740767         1.355607
 H        -0.847138        -0.606514        -0.318275
 H        -0.604731         1.026980        -0.790454
 H         1.726390        -0.787727         0.027774
 H        -0.613621         2.691626         0.381580
 H        -1.309037         2.996794         2.152596
