19
Iteration:  2070charge 0 multiplicity 1
 O         1.755813         2.717382         1.733579
 C         0.639470         1.827092         1.907051
 C         0.437538         0.922421         3.186678
 C        -0.382313         0.006345         2.174682
 C        -1.327963         0.883326         1.315788
 C        -0.502147         0.530597         0.009354
 C         0.601176         0.447885         1.059813
 O         1.863966        -0.158082         0.941694
 C        -0.806748         2.325605         1.644747
 H         1.625080         3.179174         0.886758
 H         1.408472         0.344947         3.423844
 H        -0.142788         1.432084         3.989931
 H        -0.536974        -1.097917         2.391236
 H        -2.375561         0.770232         1.451434
 H        -0.903941        -0.462143        -0.342815
 H        -0.446688         1.187041        -0.855264
 H         2.263521        -0.014134         0.025181
 H        -0.880120         2.913809         0.674536
 H        -1.246575         2.868592         2.501707
