19
Iteration:  4621
 O         1.679995         2.810959         1.581421
 C         0.621231         1.860978         1.779007
 C         0.416440         1.116324         3.218171
 C        -0.350763         0.122885         2.314474
 C        -1.317071         0.824067         1.288605
 C        -0.476435         0.320389         0.089459
 C         0.622103         0.382755         1.120792
 O         1.825826        -0.227091         1.008796
 C        -0.800226         2.285170         1.420809
 H         2.467924         2.349687         1.941432
 H         1.400242         0.864551         3.750015
 H        -0.242150         1.562012         4.067767
 H        -0.638790        -0.896822         2.704367
 H        -2.330147         0.800678         1.605843
 H        -0.652160        -0.693594        -0.152190
 H        -0.482222         0.930241        -0.805557
 H         2.511272         0.351389         0.526250
 H        -0.906477         2.841274         0.467443
 H        -1.224631         2.988171         2.187247
