19
Iteration:   829
 O         1.795227         2.539284         1.978857
 C         0.648963         1.851138         1.882594
 C         0.434901         1.026322         3.148757
 C        -0.248185         0.024883         2.269476
 C        -1.372748         0.891268         1.333519
 C        -0.622186         0.439286         0.019373
 C         0.630543         0.484452         1.063767
 O         1.835931        -0.127617         0.708583
 C        -0.836197         2.338916         1.530763
 H         1.843048         3.241817         1.293101
 H         1.450854         0.609133         3.444201
 H         0.105816         1.587656         4.014946
 H        -0.661583        -0.927279         2.522129
 H        -2.339738         0.697921         1.418738
 H        -0.723516        -0.594097        -0.317405
 H        -0.840966         1.197736        -0.759145
 H         2.162108         0.504224        -0.008197
 H        -0.841775         2.900031         0.622911
 H        -1.285396         2.901510         2.316319
