19
Iteration:  2974
 O         1.744865         2.755551         1.818767
 C         0.630553         1.870452         1.805370
 C         0.567801         1.054532         3.101258
 C        -0.393330         0.111715         2.227560
 C        -1.322529         0.894682         1.283059
 C        -0.492197         0.390691         0.089700
 C         0.566052         0.386641         1.117844
 O         1.785830        -0.259610         0.797190
 C        -0.854621         2.307405         1.571129
 H         1.952106         3.274579         1.004192
 H         1.511457         0.575383         3.489676
 H         0.173007         1.576964         3.991773
 H        -0.707302        -0.875577         2.647698
 H        -2.331405         0.703148         1.393126
 H        -0.797012        -0.571536        -0.325058
 H        -0.262415         1.101310        -0.689068
 H         2.492124        -0.164220         1.427282
 H        -1.037463         3.089390         0.830169
 H        -1.323585         2.549932         2.536038
