19
Iteration:  2859charge 0 multiplicity 1
 O         1.794032         2.653485         1.571857
 C         0.620139         1.815557         1.823594
 C         0.379593         1.009589         3.188343
 C        -0.341401         0.046576         2.199665
 C        -1.311941         0.873798         1.375589
 C        -0.686224         0.447518         0.047234
 C         0.660751         0.426865         1.049105
 O         1.881411        -0.111796         0.993953
 C        -0.810188         2.296574         1.509228
 H         2.258377         2.892643         2.407307
 H         1.345887         0.618395         3.483775
 H         0.019341         1.511199         4.115110
 H        -0.499010        -0.983609         2.397715
 H        -2.439338         0.807835         1.638955
 H        -0.748731        -0.589087        -0.299845
 H        -0.727051         1.093100        -0.832723
 H         2.409770         0.644966         1.246081
 H        -0.757281         2.909454         0.595754
 H        -1.214130         2.815612         2.387385
