19
Iteration:  2876
 O         1.834929         2.531587         1.605451
 C         0.644747         1.888583         1.882476
 C         0.422117         1.041519         3.155373
 C        -0.323059         0.059106         2.278766
 C        -1.447124         0.854150         1.277087
 C        -0.549719         0.326748         0.092219
 C         0.578676         0.511375         1.052677
 O         1.865931        -0.067880         0.873125
 C        -0.786002         2.364407         1.608396
 H         1.910404         3.266165         2.275409
 H         1.290655         0.506221         3.636148
 H        -0.311049         1.534203         3.776868
 H        -0.576941        -1.037696         2.453979
 H        -2.447686         0.673810         1.209083
 H        -0.842535        -0.772089         0.052557
 H        -0.508816         0.886640        -0.918226
 H         2.536428         0.512568         1.068799
 H        -0.873945         2.973736         0.680812
 H        -1.276615         2.872713         2.450903
