19
Iteration:  3852charge 0 multiplicity 1
 O         1.657390         2.891002         1.592776
 C         0.651901         1.864398         1.855750
 C         0.461104         0.906254         3.190974
 C        -0.317524         0.079229         2.231424
 C        -1.380362         0.868548         1.252123
 C        -0.459722         0.364702         0.049060
 C         0.614637         0.574630         1.089074
 O         1.772758        -0.323124         1.047699
 C        -0.786165         2.380518         1.575263
 H         2.489480         2.405026         1.658120
 H         1.322793         0.312738         3.436989
 H         0.192709         1.592586         4.067607
 H        -0.449459        -1.080731         2.426431
 H        -2.454381         0.694433         1.365139
 H        -0.545156        -0.738093        -0.070859
 H        -0.507891         0.756998        -0.997836
 H         2.343409        -0.111214         0.237656
 H        -0.851152         3.182134         0.826874
 H        -1.253625         2.839517         2.397562
