19
Iteration:  2748
 O         1.714335         2.720137         1.817342
 C         0.597816         1.835864         1.894483
 C         0.480724         1.035995         3.181478
 C        -0.436467         0.110599         2.299184
 C        -1.393857         0.889790         1.253028
 C        -0.560033         0.312669         0.104827
 C         0.639249         0.394231         1.095167
 O         1.934711        -0.007200         0.808786
 C        -0.733949         2.289710         1.471526
 H         2.200086         2.487589         1.023568
 H         1.484935         0.601320         3.375704
 H         0.069964         1.499263         4.083008
 H        -0.722858        -0.876099         2.479690
 H        -2.510662         0.870252         1.207113
 H        -0.916432        -0.703734        -0.062084
 H        -0.532727         0.766843        -0.864022
 H         1.915624        -0.981105         0.925621
 H        -0.733308         2.930871         0.546890
 H        -1.173901         2.974465         2.192327
