19
Iteration:  2872
 O         1.827234         2.559214         1.586880
 C         0.656524         1.877848         1.909757
 C         0.430568         1.048570         3.133950
 C        -0.316458         0.038295         2.225509
 C        -1.424412         0.854230         1.286072
 C        -0.574822         0.330160         0.069728
 C         0.554175         0.511965         1.089027
 O         1.876269        -0.081397         0.907999
 C        -0.758871         2.358553         1.587331
 H         1.996191         3.151451         2.330965
 H         1.272805         0.537320         3.553355
 H        -0.345411         1.482127         3.796134
 H        -0.518309        -1.024641         2.520739
 H        -2.601722         0.677809         1.273813
 H        -0.861442        -0.661781        -0.062042
 H        -0.770224         0.954475        -0.759889
 H         2.646830         0.560924         1.201984
 H        -0.980507         2.953358         0.719134
 H        -1.302797         2.874280         2.396965
