19
Iteration:  3692charge 0 multiplicity 1
 O         1.690002         2.793371         1.479096
 C         0.565166         1.834304         1.842664
 C         0.379724         1.027527         3.171033
 C        -0.324958         0.053716         2.201552
 C        -1.297391         0.961150         1.341328
 C        -0.438206         0.402591         0.068700
 C         0.662978         0.450367         1.039290
 O         1.877790        -0.388517         0.977863
 C        -0.849391         2.382253         1.705882
 H         1.880814         3.270206         2.286194
 H         1.253251         0.419253         3.447568
 H        -0.198154         1.318795         4.061048
 H        -0.610987        -1.013876         2.316486
 H        -2.371153         0.736066         1.451538
 H        -0.905209        -0.600078        -0.176824
 H        -0.170451         1.211695        -0.776110
 H         2.620456         0.212518         0.533038
 H        -1.050478         3.213995         0.953901
 H        -1.322079         2.795202         2.653127
