19
Iteration:  4342
 O         1.652618         2.808138         1.704449
 C         0.629565         1.851217         1.820816
 C         0.520711         1.102799         3.188137
 C        -0.341045         0.146493         2.292429
 C        -1.334078         0.873386         1.297615
 C        -0.539808         0.318960         0.133433
 C         0.678619         0.465765         1.109458
 O         1.811212        -0.377630         0.912124
 C        -0.796109         2.327940         1.368622
 H         1.589140         3.473026         2.401493
 H         1.361100         0.446747         3.453458
 H         0.070690         1.650152         4.093482
 H        -0.547341        -0.832878         2.582608
 H        -2.361854         0.702973         1.435175
 H        -0.676965        -0.711331        -0.121736
 H        -0.646612         0.676444        -0.897159
 H         2.641155         0.237773         0.756162
 H        -0.756147         2.820592         0.365668
 H        -1.326087         2.995113         2.053050
