19
Iteration:  1207
 O         1.684011         2.668691         1.686184
 C         0.607403         1.794714         1.887901
 C         0.527695         0.877375         3.211207
 C        -0.367241         0.027834         2.259772
 C        -1.376189         0.921894         1.346885
 C        -0.497769         0.570499         0.024038
 C         0.619372         0.474597         1.036305
 O         1.831920        -0.182902         0.769841
 C        -0.765194         2.291488         1.654579
 H         1.397162         3.573273         1.905001
 H         1.493943         0.354686         3.371262
 H         0.068374         1.490421         4.030400
 H        -0.598362        -1.007356         2.350065
 H        -2.439412         0.716851         1.563144
 H        -0.806050        -0.364859        -0.514413
 H        -0.409089         1.375908        -0.756171
 H         2.616848         0.211173         1.048384
 H        -0.712376         2.890035         0.724678
 H        -1.259465         2.868150         2.443800
