19
Iteration:  2032charge 0 multiplicity 1
 O         1.851742         2.605365         1.979606
 C         0.624720         1.840222         1.878866
 C         0.390111         1.019197         3.199488
 C        -0.362801         0.082150         2.282532
 C        -1.315643         0.894692         1.374327
 C        -0.595139         0.307059         0.044417
 C         0.585137         0.364639         1.000527
 O         1.875567        -0.049614         0.640831
 C        -0.797904         2.381013         1.487581
 H         1.827423         3.293248         1.293184
 H         1.344547         0.692877         3.578700
 H        -0.173401         1.517046         3.993704
 H        -0.614711        -0.949381         2.451385
 H        -2.479439         0.703175         1.398316
 H        -0.914218        -0.706016        -0.159353
 H        -0.605295         0.798034        -0.941829
 H         2.383370         0.703042         0.949325
 H        -0.829406         2.836940         0.490697
 H        -1.325856         2.936095         2.324790
