19
Iteration:    11charge 0 multiplicity 1
 O         1.814506         2.635457         1.755106
 C         0.627155         1.822296         1.892112
 C         0.419256         0.952516         3.157356
 C        -0.350547        -0.002930         2.246969
 C        -1.408728         0.804535         1.323288
 C        -0.576839         0.504522         0.011900
 C         0.523143         0.415958         1.081467
 O         1.854737        -0.011710         0.712305
 C        -0.751493         2.292988         1.612417
 H         2.112576         2.896300         2.628702
 H         1.438997         0.642384         3.310090
 H         0.035236         1.448106         4.027127
 H        -0.538900        -1.044765         2.550811
 H        -2.618910         0.595515         1.401040
 H        -0.687394        -0.405766        -0.610086
 H        -0.390291         1.375072        -0.601771
 H         2.459483         0.635579         1.185773
 H        -0.619290         2.894727         0.744043
 H        -1.102292         2.889319         2.483847
