19
Iteration:  3916
 O         1.787495         2.699815         1.701509
 C         0.620053         1.840912         1.937187
 C         0.328777         1.142903         3.255463
 C        -0.303253         0.132726         2.286450
 C        -1.325896         0.854090         1.300966
 C        -0.593928         0.334427         0.168019
 C         0.646858         0.466642         1.131101
 O         1.885948        -0.263151         0.703314
 C        -0.812163         2.325397         1.392589
 H         2.223424         2.864782         2.575312
 H         1.151650         0.627022         3.680856
 H        -0.247175         1.800642         3.971601
 H        -0.752593        -0.873623         2.691745
 H        -2.361006         0.549256         1.422123
 H        -0.591251        -0.785351        -0.065492
 H        -0.684326         0.800897        -0.916696
 H         2.419192         0.566500         0.337078
 H        -0.692050         2.906700         0.475560
 H        -1.378759         2.778513         2.198034
