19
Iteration:   559charge 0 multiplicity 1
 O         1.800205         2.560486         1.627516
 C         0.653973         1.841087         1.912969
 C         0.441393         0.956383         3.171863
 C        -0.301391        -0.033828         2.149662
 C        -1.366629         0.836142         1.318523
 C        -0.576121         0.676227         0.001636
 C         0.613163         0.509666         1.052226
 O         1.813193        -0.118499         0.876851
 C        -0.808584         2.233803         1.755015
 H         1.778879         3.504593         1.455983
 H         1.199418         0.280392         3.616071
 H        -0.200727         1.346651         3.937723
 H        -0.376046        -1.045460         2.308419
 H        -2.522914         0.623083         1.594262
 H        -0.789934        -0.233315        -0.551503
 H        -0.607440         1.452919        -0.753818
 H         2.619410         0.487454         0.803154
 H        -1.020460         3.039125         0.967419
 H        -1.176214         2.620285         2.721665
