19
Iteration:   635
 O         1.847045         2.725735         1.988045
 C         0.618726         1.897549         1.943945
 C         0.340793         1.006158         3.159018
 C        -0.271950         0.037056         2.227823
 C        -1.290480         0.837981         1.396634
 C        -0.612911         0.424893         0.065459
 C         0.631008         0.483560         1.010474
 O         1.776756        -0.275345         0.548288
 C        -0.758683         2.357815         1.554191
 H         1.584547         3.578669         1.576868
 H         1.335193         0.648430         3.526351
 H        -0.282073         1.400235         3.938404
 H        -0.377578        -0.990569         2.317834
 H        -2.495663         0.720170         1.449706
 H        -0.636851        -0.585957        -0.259690
 H        -0.761295         1.159259        -0.670719
 H         2.604340         0.066259         0.829263
 H        -0.944488         2.827602         0.541476
 H        -1.295635         2.814034         2.394314
