19
Iteration:  1509charge 0 multiplicity 1
 O         1.631887         2.746472         1.775998
 C         0.627483         1.837851         1.867430
 C         0.493913         0.965570         3.168155
 C        -0.360842         0.049970         2.236251
 C        -1.333051         0.932506         1.304897
 C        -0.453245         0.508638         0.036649
 C         0.588571         0.414714         1.075725
 O         1.881269        -0.225221         0.875471
 C        -0.828943         2.361289         1.626312
 H         2.201931         2.399188         1.047505
 H         1.350182         0.267680         3.290639
 H         0.174912         1.322961         4.162843
 H        -0.634260        -0.949102         2.508020
 H        -2.449548         0.687196         1.134205
 H        -0.773985        -0.482581        -0.277455
 H        -0.343890         1.279635        -0.680724
 H         2.108530        -0.422424        -0.031070
 H        -0.788865         3.115312         0.727524
 H        -1.280311         2.991274         2.436694
