19
Iteration:  1681
 O         1.710928         2.732975         1.892913
 C         0.649887         1.869351         2.016169
 C         0.386651         1.054670         3.255384
 C        -0.289326         0.049385         2.176244
 C        -1.314834         0.890405         1.312562
 C        -0.591297         0.432023         0.085377
 C         0.602323         0.381860         0.983996
 O         1.936324        -0.149850         0.619434
 C        -0.778902         2.388134         1.639921
 H         2.152900         2.462214         1.071725
 H         1.183904         0.494215         3.795827
 H        -0.282572         1.486245         4.000677
 H        -0.605151        -1.015875         2.205997
 H        -2.356905         0.794216         1.345022
 H        -0.899456        -0.610739        -0.242878
 H        -0.570921         1.005949        -0.939869
 H         1.732118        -1.079207         0.215192
 H        -0.822536         2.948285         0.730576
 H        -1.268444         2.797789         2.506366
