19
Iteration:  2244
 O         1.653199         2.792537         1.798513
 C         0.618424         1.753368         1.859630
 C         0.475945         1.004663         3.128181
 C        -0.346876         0.077515         2.240888
 C        -1.321130         0.933670         1.369548
 C        -0.518961         0.544871         0.012983
 C         0.613765         0.359124         1.003994
 O         1.859463        -0.285487         0.965983
 C        -0.779518         2.249194         1.502381
 H         1.398757         3.369583         1.056994
 H         1.441080         0.578211         3.421076
 H         0.200306         1.357872         4.108208
 H        -0.528981        -1.032001         2.619175
 H        -2.354428         0.823581         1.517273
 H        -0.626185        -0.431573        -0.450410
 H        -0.511247         1.399684        -0.699032
 H         2.507726         0.437835         0.583256
 H        -0.934848         2.723901         0.488422
 H        -1.112136         2.972625         2.236275
