19
Iteration:   523
 O         1.766412         2.632376         1.770848
 C         0.587019         1.824650         1.933901
 C         0.409840         0.887131         3.199689
 C        -0.400813         0.021387         2.249756
 C        -1.387567         0.958670         1.347881
 C        -0.582444         0.408919         0.114102
 C         0.641125         0.426975         1.092057
 O         1.906789        -0.038692         0.543703
 C        -0.733660         2.349584         1.588119
 H         2.043861         2.924600         2.650182
 H         1.295726         0.317171         3.449924
 H         0.037489         1.401517         4.088712
 H        -0.749289        -0.966390         2.571933
 H        -2.443876         0.789680         1.289366
 H        -0.787426        -0.607167         0.000804
 H        -0.535263         0.959874        -0.764760
 H         2.504332         0.738028         0.825921
 H        -0.690344         2.936670         0.674386
 H        -1.263133         2.867830         2.376336
