19
Iteration:   331
 O         1.693921         2.662458         1.982215
 C         0.636705         1.765458         1.936836
 C         0.310184         0.968001         3.234316
 C        -0.361016        -0.034347         2.278455
 C        -1.332278         0.929046         1.372074
 C        -0.582721         0.473992         0.085057
 C         0.614461         0.412181         1.047896
 O         1.900413         0.060640         0.447119
 C        -0.676222         2.310116         1.554841
 H         2.281560         2.473246         1.215304
 H         1.214753         0.541037         3.740678
 H        -0.177385         1.412960         4.093236
 H        -0.460637        -1.143735         2.645005
 H        -2.475041         0.781058         1.419753
 H        -0.756856        -0.501596        -0.420854
 H        -0.569582         1.179413        -0.786904
 H         2.312945        -0.612162         0.932750
 H        -0.397010         2.774947         0.547088
 H        -1.209789         3.032420         2.145780
