19
Iteration:   309
 O         1.766184         2.712760         1.966752
 C         0.681510         1.820190         1.906029
 C         0.433387         0.897774         3.217221
 C        -0.304115         0.016205         2.140249
 C        -1.353173         0.859223         1.336157
 C        -0.577569         0.542885         0.065650
 C         0.621519         0.516220         0.998083
 O         1.802545        -0.059733         0.648012
 C        -0.796655         2.290731         1.560316
 H         2.093417         2.711475         1.050611
 H         1.323757         0.416443         3.679116
 H        -0.091112         1.230187         4.096625
 H        -0.640991        -1.075997         2.334450
 H        -2.421852         0.561155         1.517639
 H        -0.602993        -0.471352        -0.344605
 H        -0.555215         1.204336        -0.822424
 H         2.165996        -0.661151         1.390550
 H        -0.952403         2.980765         0.684572
 H        -1.290687         2.738587         2.407139
