19
Iteration:   396
 O         1.652127         2.723064         1.784429
 C         0.587225         1.800355         1.913555
 C         0.494503         0.866026         3.139124
 C        -0.283143        -0.036483         2.144586
 C        -1.291777         0.926872         1.348982
 C        -0.588774         0.674162         0.060581
 C         0.595245         0.406278         0.986378
 O         1.903612        -0.072073         0.839077
 C        -0.809364         2.308687         1.653138
 H         2.430898         2.271536         1.376635
 H         1.466535         0.356567         3.431274
 H        -0.007905         1.229755         4.044076
 H        -0.616772        -1.060244         2.178781
 H        -2.442399         0.758658         1.551834
 H        -0.947924        -0.159860        -0.617482
 H        -0.456656         1.479763        -0.775780
 H         2.066632        -0.947047         1.346956
 H        -0.865385         2.843787         0.645769
 H        -1.381095         2.862027         2.403094
