19
Iteration:  1290
 O         1.728472         2.694377         1.696354
 C         0.659349         1.788943         1.892572
 C         0.370248         0.979601         3.235041
 C        -0.339637         0.015170         2.218892
 C        -1.378859         0.855221         1.361070
 C        -0.453166         0.537865         0.072816
 C         0.649229         0.422511         1.058090
 O         1.853169        -0.118995         0.749741
 C        -0.801890         2.340289         1.615193
 H         2.265205         2.897293         2.482262
 H         1.168328         0.446186         3.666602
 H        -0.111162         1.522461         4.045997
 H        -0.622764        -0.993272         2.493984
 H        -2.375694         0.623819         1.476307
 H        -0.661217        -0.399659        -0.449072
 H        -0.585552         1.304314        -0.750842
 H         1.861193        -0.366473        -0.235919
 H        -0.941839         2.996524         0.715990
 H        -1.177925         2.878968         2.485388
