19
Iteration:  1334charge 0 multiplicity 1
 O         1.654956         2.791256         1.727357
 C         0.610724         1.776730         1.875282
 C         0.564136         0.822533         3.107931
 C        -0.370451         0.073780         2.189181
 C        -1.348026         0.945929         1.304811
 C        -0.532868         0.544349         0.007207
 C         0.584822         0.469855         1.030020
 O         1.859845        -0.112258         0.997277
 C        -0.776300         2.303992         1.682481
 H         2.006642         2.628595         0.821427
 H         1.459136         0.306110         3.164436
 H         0.329532         1.116302         4.131547
 H        -0.648451        -0.941852         2.295262
 H        -2.329875         0.634179         1.231597
 H        -0.841209        -0.403443        -0.486184
 H        -0.221422         1.260788        -0.830303
 H         1.793158        -1.114213         0.755802
 H        -0.794793         3.108494         0.888639
 H        -1.192098         2.699434         2.596694
