19
Iteration:  2360
 O         1.830586         2.555631         1.692452
 C         0.620460         1.875958         1.772565
 C         0.355044         1.023561         3.131679
 C        -0.408535         0.088955         2.232618
 C        -1.346618         0.902042         1.308329
 C        -0.537347         0.299045         0.051249
 C         0.588924         0.381830         1.056788
 O         1.948727        -0.029637         0.881945
 C        -0.845625         2.362734         1.660693
 H         1.883034         3.329092         1.115463
 H         1.162946         0.463221         3.567650
 H         0.089042         1.610100         4.050577
 H        -0.748581        -0.926803         2.531572
 H        -2.456324         0.827050         1.405541
 H        -0.739330        -0.747872         0.028245
 H        -0.500288         0.659999        -0.894584
 H         2.540631         0.611712         1.452462
 H        -0.993195         3.115440         0.868400
 H        -1.232837         2.817420         2.625706
