19
Iteration:  1501charge 0 multiplicity 1
 O         1.591547         2.729363         1.708493
 C         0.594814         1.798377         1.891550
 C         0.515099         0.896636         3.142129
 C        -0.414434         0.039231         2.230542
 C        -1.291299         0.932524         1.283012
 C        -0.412307         0.584026         0.110368
 C         0.640908         0.401938         1.130945
 O         1.862950        -0.224298         0.910887
 C        -0.826098         2.370526         1.624179
 H         2.137177         2.688097         0.903564
 H         1.604072         0.572059         3.199939
 H         0.210314         1.428524         4.040688
 H        -0.893178        -0.922244         2.434628
 H        -2.469327         0.788867         1.179034
 H        -0.639274        -0.341167        -0.481211
 H        -0.252807         1.240290        -0.754415
 H         1.861202        -0.272565        -0.080006
 H        -0.822235         2.951798         0.658971
 H        -1.107580         2.895792         2.566848
