19
Iteration:  1433
 O         1.794158         2.653408         1.918187
 C         0.636327         1.834197         1.848351
 C         0.506566         0.986776         3.140656
 C        -0.385964         0.044346         2.263417
 C        -1.352496         0.886021         1.304499
 C        -0.567261         0.381621         0.062793
 C         0.579642         0.450353         1.058021
 O         1.869645        -0.082828         0.792808
 C        -0.752371         2.379808         1.510463
 H         1.371604         3.516674         1.901163
 H         1.498352         0.587415         3.275905
 H         0.072608         1.472406         4.028142
 H        -0.699572        -0.926684         2.560463
 H        -2.447510         0.604468         1.388660
 H        -1.023776        -0.538429        -0.282006
 H        -0.668150         1.017452        -0.808917
 H         1.775626        -0.856911         0.112435
 H        -0.663425         2.804676         0.446848
 H        -1.214830         3.025038         2.266561
