19
Iteration:  3629
 O         1.868008         2.528129         1.700050
 C         0.585722         1.833222         1.896124
 C         0.273952         1.052547         3.216372
 C        -0.264343         0.024492         2.325683
 C        -1.279739         0.942041         1.297062
 C        -0.621311         0.292108         0.155357
 C         0.610612         0.410205         1.052443
 O         1.897803        -0.065027         0.705457
 C        -0.830379         2.398445         1.492816
 H         1.601245         3.424510         1.909070
 H         1.332960         0.961529         3.710928
 H        -0.252608         1.582024         4.033364
 H        -0.747157        -0.879487         2.603407
 H        -2.400265         0.762387         1.170228
 H        -0.925847        -0.771894         0.207030
 H        -0.560038         0.839619        -0.780193
 H         2.524410         0.733619         0.981386
 H        -0.584684         2.979876         0.650939
 H        -1.343085         2.899845         2.301120
