19
Iteration:  2717charge 0 multiplicity 1
 O         1.787238         2.643669         1.626282
 C         0.606959         1.842584         1.860156
 C         0.338288         1.003263         3.240816
 C        -0.315362         0.062178         2.213858
 C        -1.400199         0.840934         1.304922
 C        -0.544008         0.354471         0.069437
 C         0.625942         0.439417         1.087767
 O         1.944882         0.059118         0.887007
 C        -0.792251         2.369472         1.573382
 H         2.378633         1.917357         1.259836
 H         1.242933         0.746800         3.788740
 H        -0.395244         1.435873         3.940623
 H        -0.657027        -0.903702         2.195083
 H        -2.556230         0.742479         1.441442
 H        -0.925974        -0.605784        -0.152130
 H        -0.449424         0.924279        -0.814659
 H         1.971535        -0.879801         1.247248
 H        -0.865980         3.030274         0.683742
 H        -1.098002         2.805127         2.505542
