19
Iteration:   272charge 0 multiplicity 1
 O         1.643206         2.787198         1.850891
 C         0.647103         1.782495         1.884614
 C         0.527653         0.861194         3.143492
 C        -0.340133         0.060891         2.121829
 C        -1.296924         0.986217         1.269647
 C        -0.496463         0.600986        -0.021193
 C         0.600567         0.365759         0.991269
 O         1.855417        -0.267851         0.777380
 C        -0.850249         2.285883         1.758344
 H         1.747227         3.453200         1.137351
 H         1.385782         0.237111         3.337890
 H         0.134491         1.313233         4.082972
 H        -0.700460        -0.838739         2.291191
 H        -2.323339         0.736511         1.385334
 H        -0.783856        -0.396780        -0.367274
 H        -0.405238         1.400831        -0.810364
 H         2.393674         0.169886         1.549205
 H        -1.012753         3.243107         1.276455
 H        -1.327314         2.435688         2.798599
