19
Iteration:  1062
 O         1.678893         2.769023         1.808882
 C         0.652467         1.806932         1.977758
 C         0.419649         0.913201         3.234750
 C        -0.336457        -0.004526         2.284721
 C        -1.298534         0.958778         1.310869
 C        -0.518382         0.593385         0.053934
 C         0.614330         0.380475         1.034238
 O         1.806436        -0.260142         0.624433
 C        -0.731248         2.289116         1.595869
 H         1.440896         3.297202         1.030543
 H         1.384121         0.425334         3.538370
 H        -0.160869         1.363337         4.170861
 H        -0.546991        -1.032635         2.513074
 H        -2.409195         0.816834         1.423460
 H        -0.707523        -0.347017        -0.518060
 H        -0.412064         1.343671        -0.806000
 H         2.565976         0.183899         1.060057
 H        -0.856037         3.107527         0.783866
 H        -1.101463         2.834278         2.479033
