19
Iteration:  4020charge 0 multiplicity 1
 O         1.748539         2.774212         1.560765
 C         0.659801         1.834804         1.898779
 C         0.407918         1.089988         3.230388
 C        -0.319068         0.117818         2.243501
 C        -1.402837         0.869554         1.280066
 C        -0.477217         0.405943         0.036842
 C         0.690018         0.448110         1.098126
 O         1.821639        -0.341694         0.949584
 C        -0.829927         2.272845         1.551190
 H         1.490788         3.576651         2.048617
 H         1.374091         0.561964         3.585095
 H        -0.057527         1.625814         4.050331
 H        -0.501935        -0.854056         2.522611
 H        -2.450308         0.622247         1.615507
 H        -0.677199        -0.650515        -0.198634
 H        -0.577585         1.173493        -0.822061
 H         2.425938         0.217343         0.497255
 H        -0.815425         2.965937         0.701775
 H        -1.489320         2.753817         2.278031
