19
Iteration:  2765charge 0 multiplicity 1
 O         1.625914         2.768035         1.882866
 C         0.687565         1.759427         1.819051
 C         0.426566         1.095755         3.159634
 C        -0.255269         0.065651         2.336680
 C        -1.327761         0.907053         1.342947
 C        -0.548742         0.397214         0.066544
 C         0.583739         0.342534         1.085389
 O         1.891189        -0.142040         0.826845
 C        -0.798758         2.380279         1.393561
 H         2.275336         2.677878         1.185621
 H         1.322991         0.635056         3.611121
 H        -0.003813         1.668711         4.010120
 H        -0.730239        -0.972420         2.658607
 H        -2.417447         0.699904         1.582827
 H        -0.755121        -0.609210        -0.420069
 H        -0.466863         1.151360        -0.814304
 H         1.943615        -1.037278         0.332260
 H        -0.770436         2.791918         0.395726
 H        -1.294591         3.001780         2.181771
