19
Iteration:  3301charge 0 multiplicity 1
 O         1.746972         2.696028         1.860114
 C         0.651340         1.796036         1.872215
 C         0.349520         1.143863         3.227062
 C        -0.299594         0.099604         2.271862
 C        -1.331929         0.833007         1.327771
 C        -0.576222         0.380202         0.105985
 C         0.693376         0.453127         1.080954
 O         1.795604        -0.249333         0.764104
 C        -0.737321         2.333945         1.469783
 H         1.923985         3.064785         0.970998
 H         1.278173         0.788894         3.684855
 H        -0.180171         1.669848         3.932448
 H        -0.544326        -0.943936         2.476802
 H        -2.426935         0.682941         1.437170
 H        -0.823157        -0.638573        -0.242009
 H        -0.520573         1.036325        -0.817743
 H         2.266468         0.279487         0.179960
 H        -0.937628         2.728291         0.453812
 H        -1.120231         3.091002         2.195277
