19
Iteration:  4496
 O         1.712224         2.792371         1.617653
 C         0.675174         1.954715         1.887401
 C         0.386142         1.147526         3.258642
 C        -0.344844         0.199715         2.289615
 C        -1.359574         0.785235         1.316990
 C        -0.484145         0.302216         0.128881
 C         0.685555         0.444994         1.155062
 O         1.802198        -0.353760         0.847324
 C        -0.796981         2.266446         1.374017
 H         1.606896         3.335934         2.435907
 H         1.307224         0.573649         3.581264
 H        -0.188599         1.774101         3.976674
 H        -0.447340        -0.855479         2.511404
 H        -2.541010         0.637044         1.322606
 H        -0.661357        -0.872492         0.115400
 H        -0.654289         0.907627        -0.819534
 H         2.688212        -0.033678         0.469230
 H        -0.608056         2.802947         0.374816
 H        -1.284031         2.890086         2.176383
