19
Iteration:  3151
 O         1.761854         2.723973         1.846167
 C         0.664806         1.860470         1.866005
 C         0.449513         1.084167         3.194529
 C        -0.323490         0.047422         2.232650
 C        -1.345506         0.798380         1.369157
 C        -0.645013         0.367543         0.063472
 C         0.668357         0.497343         0.914628
 O         1.829150        -0.259620         0.895702
 C        -0.771666         2.332617         1.455524
 H         1.506560         3.360018         1.137008
 H         1.521265         0.871148         3.431446
 H        -0.187885         1.575438         4.002218
 H        -0.600203        -0.941602         2.537045
 H        -2.448654         0.955347         1.590150
 H        -0.911497        -0.660298        -0.265374
 H        -0.785652         0.981039        -0.763487
 H         2.768981         0.130794         1.014265
 H        -0.956295         2.878748         0.506351
 H        -1.138110         2.945877         2.308654
