19
Iteration:   360
 O         1.807547         2.613987         1.898603
 C         0.647657         1.845681         1.957273
 C         0.323547         0.969157         3.191659
 C        -0.375928         0.028514         2.151964
 C        -1.301657         0.950931         1.313570
 C        -0.572783         0.353252         0.108294
 C         0.625306         0.486643         1.053962
 O         1.873318         0.086254         0.490034
 C        -0.812594         2.294189         1.689347
 H         2.497153         1.898604         1.847677
 H         1.196488         0.536263         3.684994
 H        -0.282627         1.442536         3.994669
 H        -0.623632        -0.938574         2.257856
 H        -2.314649         0.746644         1.333505
 H        -0.795747        -0.719253         0.108242
 H        -0.607860         0.903861        -0.876649
 H         2.429148        -0.543149         1.064193
 H        -0.726009         2.958452         0.841324
 H        -1.482432         2.776682         2.439244
