19
Iteration:  3569
 O         1.727426         2.637854         1.745007
 C         0.613475         1.848136         1.882714
 C         0.488384         1.004643         3.205890
 C        -0.300530         0.132873         2.267610
 C        -1.386151         0.923912         1.345046
 C        -0.547972         0.369625         0.070995
 C         0.585904         0.379993         1.035774
 O         1.854712        -0.208142         0.840523
 C        -0.777393         2.359451         1.510730
 H         1.441125         3.539233         1.600233
 H         1.434095         0.647582         3.353398
 H         0.030620         1.519297         4.032731
 H        -0.777265        -0.860120         2.424664
 H        -2.406315         0.655337         1.420811
 H        -0.777894        -0.648867        -0.281970
 H        -0.375173         0.944449        -0.894514
 H         2.540270         0.481836         0.899983
 H        -0.705895         2.944048         0.539665
 H        -1.240665         3.057878         2.230045
