19
Iteration:  1066
 O         1.698336         2.769746         1.848273
 C         0.663436         1.824290         1.995073
 C         0.393105         0.949874         3.244501
 C        -0.301052        -0.007912         2.264855
 C        -1.302837         0.943068         1.314169
 C        -0.569038         0.554786         0.061615
 C         0.643034         0.382506         1.003860
 O         1.804799        -0.277878         0.607491
 C        -0.716700         2.324900         1.607802
 H         1.384479         3.276091         1.072921
 H         1.304900         0.501541         3.517193
 H        -0.234701         1.339190         3.995113
 H        -0.637888        -1.009725         2.476121
 H        -2.331631         0.871295         1.408024
 H        -0.674072        -0.364096        -0.488468
 H        -0.446960         1.318605        -0.709267
 H         2.607448         0.170190         0.918119
 H        -0.944765         2.905007         0.705315
 H        -1.209399         2.847450         2.426939
