19
Iteration:  4082
 O         1.858688         2.775282         1.632916
 C         0.643448         1.880036         1.924429
 C         0.331567         1.053510         3.217830
 C        -0.396382         0.145680         2.282063
 C        -1.392137         0.830941         1.316385
 C        -0.563784         0.311577         0.114382
 C         0.641385         0.484700         1.123225
 O         1.864100        -0.205173         0.821423
 C        -0.793413         2.225322         1.409126
 H         2.112698         3.251016         2.450926
 H         1.270841         0.541825         3.457277
 H        -0.074417         1.517585         4.102627
 H        -0.554632        -0.801863         2.738553
 H        -2.448571         0.865961         1.458164
 H        -0.645014        -0.751421        -0.081445
 H        -0.785882         0.617476        -0.927863
 H         2.639700         0.337351         0.829552
 H        -0.750436         2.739496         0.415986
 H        -1.390803         2.769787         2.145322
