19
Iteration:  3252
 O         1.733319         2.654718         1.673075
 C         0.644668         1.799471         1.855251
 C         0.434100         0.993672         3.172851
 C        -0.300388         0.061462         2.195448
 C        -1.359370         1.003222         1.383314
 C        -0.570370         0.359592         0.054493
 C         0.610380         0.505952         1.035220
 O         1.895411        -0.210673         0.910133
 C        -0.771363         2.321149         1.532218
 H         1.540196         3.458518         1.182518
 H         1.299497         0.547022         3.664407
 H        -0.201984         1.503898         3.994711
 H        -0.625755        -0.967775         2.401233
 H        -2.440618         0.810517         1.416107
 H        -0.925007        -0.668707        -0.015434
 H        -0.759842         0.810430        -0.868594
 H         2.469723         0.364959         1.544369
 H        -0.847639         3.053676         0.717616
 H        -1.227542         2.832148         2.396992
