19
Iteration:  2576
 O         1.734096         2.695304         1.549125
 C         0.631874         1.813590         1.817245
 C         0.326299         1.003610         3.237770
 C        -0.358975         0.057193         2.225978
 C        -1.313122         0.907257         1.320195
 C        -0.572454         0.333926         0.148905
 C         0.711871         0.422238         1.040470
 O         1.916284        -0.141977         0.878451
 C        -0.806279         2.356800         1.577614
 H         2.167231         3.191271         2.278606
 H         1.060559         0.365827         3.676751
 H        -0.243157         1.548272         3.995716
 H        -0.709938        -0.871312         2.502641
 H        -2.415537         0.844633         1.432519
 H        -0.861329        -0.739175         0.084602
 H        -0.623883         0.959295        -0.790931
 H         2.460099         0.770532         0.805837
 H        -0.876338         3.047594         0.755714
 H        -1.204774         2.679349         2.501997
