19
Iteration:  2386charge 0 multiplicity 1
 O         1.762502         2.484923         1.611770
 C         0.588441         1.801705         1.858593
 C         0.439309         1.047603         3.246172
 C        -0.374596         0.044036         2.318821
 C        -1.400713         0.859279         1.261300
 C        -0.510324         0.530192         0.062195
 C         0.595769         0.402461         1.118478
 O         1.918892        -0.031490         0.918174
 C        -0.817278         2.276726         1.522173
 H         1.679283         3.053191         0.829104
 H         1.408937         0.576391         3.538923
 H         0.166540         1.571689         4.153758
 H        -0.754317        -0.953801         2.784349
 H        -2.467593         0.796433         1.235957
 H        -0.671177        -0.444016        -0.450098
 H        -0.314397         1.315914        -0.781993
 H         2.425435         0.884841         1.032873
 H        -0.840334         2.954148         0.674756
 H        -1.196709         2.824163         2.367890
