19
Iteration:  1809
 O         1.653355         2.846245         1.784779
 C         0.656995         1.839129         1.870636
 C         0.502809         0.912943         3.104881
 C        -0.387131         0.024686         2.237753
 C        -1.357724         0.931063         1.333420
 C        -0.455715         0.510601        -0.004563
 C         0.671583         0.430590         1.072364
 O         1.841507        -0.208885         0.816308
 C        -0.819692         2.306529         1.684670
 H         2.039946         2.591863         0.914581
 H         1.431598         0.454615         3.318637
 H         0.137566         1.356723         4.045256
 H        -0.613713        -0.974661         2.633833
 H        -2.367046         0.844866         1.286456
 H        -0.593413        -0.503990        -0.265713
 H        -0.386751         1.194758        -0.788765
 H         1.636016        -1.067120         0.561678
 H        -1.109216         3.131224         1.014105
 H        -1.240286         2.708125         2.591588
