19
Iteration:  3295charge 0 multiplicity 1
 O         1.741733         2.705424         1.873278
 C         0.664486         1.772621         1.869448
 C         0.404172         1.128037         3.212053
 C        -0.348291         0.129121         2.333278
 C        -1.355658         0.853501         1.400513
 C        -0.514066         0.413394         0.000227
 C         0.631231         0.404251         1.072205
 O         1.792970        -0.220645         0.765975
 C        -0.747610         2.293762         1.436823
 H         1.882515         3.024679         0.976538
 H         1.299731         0.653401         3.670337
 H        -0.142681         1.785433         4.041170
 H        -0.559848        -0.916384         2.582512
 H        -2.457058         0.766783         1.652911
 H        -0.645383        -0.678567        -0.247146
 H        -0.408481         0.861751        -1.003744
 H         2.340113         0.393674         0.153015
 H        -0.887653         2.781997         0.466091
 H        -1.203083         3.019116         2.111636
