19
Iteration:  1088
 O         1.792866         2.730839         2.081295
 C         0.673628         1.867270         1.887396
 C         0.355590         1.038721         3.166612
 C        -0.266171         0.058674         2.205855
 C        -1.335352         0.896134         1.393579
 C        -0.613718         0.419005         0.094368
 C         0.639175         0.453923         0.944116
 O         1.777442        -0.290417         0.566773
 C        -0.764930         2.320964         1.538607
 H         1.845326         3.517991         1.514737
 H         1.211485         0.619116         3.651370
 H        -0.386722         1.566755         3.706641
 H        -0.306774        -1.045271         2.262732
 H        -2.300439         0.590359         1.669016
 H        -0.791900        -0.671263        -0.022456
 H        -0.736097         0.827952        -0.911881
 H         2.548193         0.354157         0.427158
 H        -0.845388         2.995323         0.674915
 H        -1.036030         2.925862         2.411429
