19
Iteration:  3011
 O         1.710053         2.733833         1.675765
 C         0.645679         1.823422         1.867152
 C         0.357967         1.011073         3.307585
 C        -0.316240         0.066533         2.181695
 C        -1.324591         0.958889         1.371382
 C        -0.531997         0.438065         0.176467
 C         0.698425         0.374712         1.125159
 O         1.853136        -0.274505         0.726441
 C        -0.729946         2.325846         1.521649
 H         1.411845         3.376646         1.015690
 H         1.168919         0.584804         3.839541
 H        -0.458401         1.537522         3.798751
 H        -0.750022        -0.914005         2.140417
 H        -2.431969         0.797835         1.632832
 H        -0.852403        -0.590368        -0.221206
 H        -0.653548         1.276633        -0.619885
 H         2.521894         0.155963         1.171272
 H        -0.604246         2.858625         0.521223
 H        -1.360997         2.966337         2.187952
