19
Iteration:   102
 O         1.590912         2.748423         1.821951
 C         0.577852         1.816862         1.900921
 C         0.588946         0.898625         3.069783
 C        -0.280778         0.013431         2.268569
 C        -1.352639         0.887485         1.301974
 C        -0.480088         0.610754        -0.018967
 C         0.617048         0.522280         1.031201
 O         1.832471        -0.329305         0.841619
 C        -0.862427         2.391288         1.656240
 H         2.080108         2.834214         2.684859
 H         1.595259         0.463364         3.201676
 H         0.234380         1.282260         4.050716
 H        -0.433572        -1.094663         2.293178
 H        -2.269509         0.515652         1.330856
 H        -0.682525        -0.328232        -0.492665
 H        -0.486580         1.497228        -0.697740
 H         2.247160        -0.176955        -0.081491
 H        -0.964614         2.962716         0.661262
 H        -1.212518         3.038408         2.434948
