19
Iteration:  1734
 O         1.725476         2.638427         1.787714
 C         0.621564         1.784113         1.972238
 C         0.441144         0.941646         3.204832
 C        -0.351528         0.067550         2.329414
 C        -1.343074         0.969064         1.303667
 C        -0.611011         0.333246         0.043620
 C         0.577025         0.453030         0.984383
 O         1.943083         0.077999         0.676436
 C        -0.776183         2.355280         1.564357
 H         2.403610         2.401733         2.443118
 H         1.343777         0.335853         3.282135
 H         0.074075         1.197761         4.185917
 H        -0.856666        -0.878231         2.667756
 H        -2.347320         0.821959         1.421607
 H        -0.860423        -0.697704        -0.095967
 H        -0.544459         0.843245        -0.940510
 H         1.822445        -0.853657         0.222141
 H        -0.610502         3.016450         0.655733
 H        -1.229986         2.908981         2.411849
