19
Iteration:  4348
 O         1.694544         2.818569         1.709360
 C         0.601653         1.902989         1.806863
 C         0.477613         1.086901         3.188618
 C        -0.273872         0.122483         2.325501
 C        -1.340743         0.905237         1.296642
 C        -0.505631         0.283388         0.152713
 C         0.639446         0.436950         1.093845
 O         1.797394        -0.372401         0.903390
 C        -0.816356         2.364244         1.329456
 H         1.397392         3.361363         2.479831
 H         1.451939         0.612888         3.445836
 H         0.051748         1.339932         4.141530
 H        -0.371993        -1.034555         2.430810
 H        -2.453689         0.736461         1.402493
 H        -0.624688        -0.851943         0.095542
 H        -0.727242         0.806299        -0.818020
 H         2.612697         0.069162         0.765369
 H        -0.719635         2.924776         0.392983
 H        -1.289646         3.059391         2.047571
