19
Iteration:  2588charge 0 multiplicity 1
 O         1.676412         2.722968         1.613056
 C         0.619350         1.829357         1.898352
 C         0.385179         1.078036         3.193615
 C        -0.346248         0.091894         2.255567
 C        -1.368924         0.883299         1.292888
 C        -0.484874         0.371821         0.149286
 C         0.643468         0.456295         1.108869
 O         1.903600        -0.228410         0.794518
 C        -0.788062         2.322100         1.581590
 H         2.147456         2.683854         2.454449
 H         1.321389         0.829232         3.634315
 H        -0.275385         1.575288         3.927373
 H        -0.612204        -0.926050         2.453813
 H        -2.434161         0.684465         1.198720
 H        -0.630076        -0.722198         0.001335
 H        -0.643265         0.774096        -0.909159
 H         2.587761         0.308228         0.386059
 H        -0.845550         2.952200         0.709032
 H        -1.230720         2.923394         2.370518
