19
Iteration:  3797charge 0 multiplicity 1
 O         1.711299         2.696103         1.659478
 C         0.610582         1.859907         1.865974
 C         0.356858         1.064617         3.223609
 C        -0.316511         0.074329         2.287268
 C        -1.345935         0.913426         1.334589
 C        -0.488810         0.402589         0.175120
 C         0.606223         0.415308         1.140960
 O         1.897193        -0.171091         0.842349
 C        -0.790600         2.298899         1.424370
 H         2.442789         2.193247         2.028729
 H         1.317572         0.711821         3.556450
 H        -0.165820         1.673907         4.027345
 H        -0.716988        -0.986117         2.503660
 H        -2.422267         0.796112         1.306740
 H        -0.821798        -0.558801        -0.200663
 H        -0.361260         1.024308        -0.690768
 H         2.041209         0.188725        -0.014073
 H        -0.812920         2.680799         0.405592
 H        -1.232715         2.919499         2.144295
