19
Iteration:  2527charge 0 multiplicity 1
 O         1.803290         2.536924         1.643398
 C         0.565382         1.829734         1.867651
 C         0.452047         1.016209         3.177356
 C        -0.348139         0.139880         2.293386
 C        -1.345761         0.860276         1.330588
 C        -0.497501         0.457225         0.049240
 C         0.620544         0.435317         1.155290
 O         1.908752        -0.119993         0.903968
 C        -0.898979         2.319988         1.528855
 H         1.601257         3.343292         1.152412
 H         1.518622         0.687062         3.318015
 H        -0.018482         1.327332         4.144902
 H        -0.651587        -0.984296         2.523003
 H        -2.414213         0.691711         1.416312
 H        -0.779804        -0.526791        -0.290134
 H        -0.416184         1.141922        -0.771617
 H         2.303077         0.641695         0.482905
 H        -1.087503         2.845664         0.564536
 H        -1.427586         2.839377         2.394256
