19
Iteration:  1834charge 0 multiplicity 1
 O         1.701901         2.775751         1.911913
 C         0.735298         1.794984         1.911453
 C         0.423924         0.995680         3.216396
 C        -0.324028         0.077302         2.169909
 C        -1.382609         0.939298         1.298828
 C        -0.677506         0.334179         0.048612
 C         0.638115         0.369488         0.997045
 O         1.899821        -0.035959         0.736771
 C        -0.712418         2.290569         1.599579
 H         2.107603         2.818250         1.010225
 H         1.330724         0.472844         3.667163
 H        -0.070518         1.535562         3.991965
 H        -0.578739        -0.935594         2.618351
 H        -2.522460         0.792507         1.320885
 H        -0.958866        -0.672354         0.019499
 H        -0.617268         0.883851        -0.885660
 H         1.925130        -0.878400         0.322572
 H        -0.761561         3.053843         0.806824
 H        -1.300628         2.875524         2.367572
