19
Iteration:  3420
 O         1.857043         2.591789         1.811013
 C         0.666656         1.846100         1.866748
 C         0.385725         1.108503         3.174268
 C        -0.400040         0.102145         2.309695
 C        -1.372366         0.821035         1.316558
 C        -0.573441         0.363458         0.113629
 C         0.570524         0.442021         1.104190
 O         1.847071        -0.102081         0.737135
 C        -0.762653         2.303857         1.468967
 H         1.940922         2.837772         0.876180
 H         1.285769         0.591201         3.653415
 H        -0.103295         1.750573         3.998431
 H        -0.569219        -0.912926         2.730798
 H        -2.438617         0.728503         1.544249
 H        -0.713507        -0.630777        -0.244136
 H        -0.508096         1.082810        -0.668460
 H         2.496161         0.649937         0.756744
 H        -0.951755         2.855047         0.532470
 H        -1.289443         2.751700         2.318139
