19
Iteration:  4872
 O         1.752361         2.809772         1.741965
 C         0.611695         1.915824         1.807435
 C         0.436886         1.178119         3.113185
 C        -0.386261         0.144026         2.260728
 C        -1.383430         0.832334         1.319510
 C        -0.491579         0.289048         0.146009
 C         0.612600         0.365183         1.053552
 O         1.874781        -0.281971         0.943546
 C        -0.840429         2.276592         1.464975
 H         2.252578         2.794493         0.907713
 H         1.320877         0.602291         3.368250
 H        -0.065898         1.720845         3.843130
 H        -0.400034        -0.990455         2.563887
 H        -2.509742         0.843900         1.462344
 H        -0.537414        -0.819317        -0.009608
 H        -0.597618         0.846017        -0.880861
 H         2.678899         0.281490         1.216893
 H        -1.010819         3.015325         0.685039
 H        -1.297232         2.637687         2.408731
