19
Iteration:  2880
 O         1.843208         2.520539         1.629437
 C         0.621276         1.868465         1.846481
 C         0.406493         1.030642         3.185950
 C        -0.341210         0.074802         2.306512
 C        -1.415329         0.871476         1.281665
 C        -0.532953         0.333794         0.107051
 C         0.617203         0.494239         1.030022
 O         1.841084        -0.068486         0.833166
 C        -0.825454         2.362388         1.609991
 H         1.864450         3.327751         2.148643
 H         1.256947         0.578962         3.691887
 H        -0.214810         1.609718         3.932335
 H        -0.577469        -0.934858         2.407384
 H        -2.538817         0.666800         1.206060
 H        -0.753560        -0.793311         0.079040
 H        -0.311697         0.727500        -0.949455
 H         2.568858         0.672006         0.995913
 H        -0.767973         2.996926         0.685839
 H        -1.248498         2.869917         2.495826
