19
Iteration:  4731
 O         1.659921         2.740831         1.519425
 C         0.599004         1.849905         1.814737
 C         0.397592         1.117956         3.221876
 C        -0.297630         0.033023         2.311330
 C        -1.337217         0.937843         1.287895
 C        -0.541769         0.275101         0.053030
 C         0.659360         0.362851         1.162167
 O         1.927707        -0.170610         1.049910
 C        -0.811158         2.348990         1.429243
 H         2.461353         2.442695         1.977106
 H         1.363872         0.752542         3.609184
 H        -0.368112         1.686418         3.807789
 H        -0.783757        -0.895894         2.872227
 H        -2.484616         0.801289         1.513547
 H        -0.857392        -0.713700        -0.210497
 H        -0.498937         0.847160        -0.889924
 H         2.462724         0.464211         0.528967
 H        -0.854916         2.901322         0.472503
 H        -1.274693         2.872030         2.359754
