19
Iteration:   397
 O         1.645332         2.726991         1.777517
 C         0.582050         1.799024         1.925573
 C         0.491659         0.866116         3.128821
 C        -0.277368        -0.031537         2.139960
 C        -1.293771         0.929630         1.347605
 C        -0.583460         0.678919         0.063195
 C         0.596916         0.399822         0.984171
 O         1.909130        -0.077828         0.843461
 C        -0.807306         2.311788         1.658044
 H         2.421994         2.296178         1.363219
 H         1.457473         0.341748         3.426089
 H         0.017210         1.226245         4.055796
 H        -0.632935        -1.117425         2.185111
 H        -2.451501         0.791137         1.555932
 H        -0.964003        -0.144827        -0.610768
 H        -0.433699         1.443120        -0.770467
 H         2.045178        -0.970137         1.336501
 H        -0.877781         2.847089         0.656923
 H        -1.373011         2.857127         2.414736
