19
Iteration:  1794charge 0 multiplicity 1
 O         1.605578         2.778699         1.695111
 C         0.603619         1.805733         1.925502
 C         0.558774         0.947818         3.173658
 C        -0.252626         0.043257         2.182717
 C        -1.348889         0.894307         1.297159
 C        -0.485519         0.679025         0.089960
 C         0.628293         0.482406         1.063932
 O         1.869383        -0.274246         0.887413
 C        -0.886582         2.299846         1.646792
 H         2.234103         2.530078         0.997769
 H         1.498013         0.343462         3.310598
 H         0.118456         1.283080         4.162278
 H        -0.485636        -1.034464         2.215830
 H        -2.470367         0.535071         1.311891
 H        -0.861433        -0.257543        -0.560417
 H        -0.370998         1.578297        -0.679023
 H         1.565113        -1.222009         0.637904
 H        -0.761518         2.884365         0.728157
 H        -1.285973         2.860038         2.521355
