19
Iteration:  1043
 O         1.661559         2.688933         1.705281
 C         0.675111         1.734650         1.893969
 C         0.576073         0.878462         3.153696
 C        -0.438781         0.046234         2.184001
 C        -1.380304         0.935385         1.287594
 C        -0.440019         0.576262         0.060718
 C         0.614852         0.436806         1.062558
 O         1.797191        -0.135897         0.798053
 C        -0.776110         2.317832         1.782049
 H         1.438592         3.106377         0.853710
 H         1.359024         0.209735         3.234079
 H         0.215552         1.383060         4.023176
 H        -0.834444        -0.870018         2.344919
 H        -2.389423         0.781521         1.161605
 H        -0.652121        -0.303644        -0.540907
 H        -0.194196         1.380832        -0.669241
 H         2.566838         0.021107         1.441930
 H        -0.979736         2.928294         0.905218
 H        -1.256863         2.794057         2.614252
