19
Iteration:   503charge 0 multiplicity 1
 O         1.792660         2.725803         1.910268
 C         0.717669         1.771494         1.941995
 C         0.439265         0.980360         3.239018
 C        -0.396663         0.039010         2.216706
 C        -1.328377         0.900185         1.304531
 C        -0.659428         0.250479         0.049562
 C         0.626933         0.520694         0.980496
 O         1.747561         0.010802         0.597923
 C        -0.700587         2.310291         1.548049
 H         2.544668         2.455476         2.476667
 H         1.196950         0.324583         3.698823
 H        -0.149626         1.429169         4.021437
 H        -0.560767        -0.948034         2.282453
 H        -2.450680         0.733871         1.603247
 H        -0.832974        -0.800291         0.071276
 H        -0.790620         0.703856        -0.930320
 H         2.547214         0.646578         0.764400
 H        -0.779101         2.975410         0.627952
 H        -1.172008         2.821407         2.394358
