19
Iteration:  3040
 O         1.814668         2.625350         1.798689
 C         0.644093         1.817363         1.843383
 C         0.494356         1.120449         3.182158
 C        -0.425231         0.088450         2.304280
 C        -1.415975         0.881791         1.285884
 C        -0.547403         0.315850         0.044304
 C         0.616554         0.403962         1.092559
 O         1.838186        -0.130126         0.787296
 C        -0.767313         2.302241         1.552262
 H         1.674502         3.436477         1.301597
 H         1.431766         0.655182         3.617066
 H        -0.038848         1.788739         3.916609
 H        -0.682219        -0.977651         2.522989
 H        -2.436219         0.904980         1.473354
 H        -0.746992        -0.753244        -0.156722
 H        -0.611094         0.854852        -0.857932
 H         2.407939         0.630913         0.638810
 H        -0.714729         2.967499         0.681628
 H        -1.330531         2.787917         2.346421
