19
Iteration:  4187charge 0 multiplicity 1
 O         1.653388         2.802583         1.693808
 C         0.664188         1.875120         1.764807
 C         0.398908         1.152182         3.172515
 C        -0.301171         0.107258         2.323434
 C        -1.362585         0.938993         1.304165
 C        -0.527180         0.404214         0.125511
 C         0.704027         0.347774         1.092941
 O         1.899010        -0.457214         0.817698
 C        -0.813453         2.326273         1.477178
 H         1.534423         3.257993         2.553221
 H         1.365967         0.790401         3.539046
 H        -0.086657         1.722591         4.055438
 H        -0.783212        -0.850926         2.754066
 H        -2.424278         0.732819         1.396674
 H        -0.830072        -0.657703        -0.156464
 H        -0.410158         1.103307        -0.722858
 H         2.584934         0.214201         1.112575
 H        -0.936664         2.761396         0.502296
 H        -1.416247         2.958414         2.159669
