19
Iteration:  4128charge 0 multiplicity 1
 O         1.744649         2.478216         1.505774
 C         0.590488         1.814092         1.848365
 C         0.398765         1.111294         3.264827
 C        -0.352241         0.072935         2.288596
 C        -1.402635         0.866582         1.276944
 C        -0.567733         0.390026         0.099868
 C         0.586301         0.416437         1.091186
 O         2.016512        -0.038566         0.989383
 C        -0.840965         2.368493         1.495810
 H         2.268832         2.785432         2.284418
 H         1.352556         0.599917         3.584077
 H        -0.085739         1.608710         4.074337
 H        -0.702531        -0.877053         2.517617
 H        -2.483209         0.611843         1.409088
 H        -0.746345        -0.563156        -0.368118
 H        -0.638141         1.189048        -0.684384
 H         2.573269         0.704769         0.715400
 H        -0.720392         2.820489         0.511705
 H        -1.354410         2.989993         2.157335
