19
Iteration:  1383charge 0 multiplicity 1
 O         1.788807         2.635178         1.881838
 C         0.644327         1.854315         1.909375
 C         0.238149         1.032165         3.211684
 C        -0.289861         0.015776         2.214644
 C        -1.270537         0.917447         1.381475
 C        -0.588028         0.396646         0.098728
 C         0.665882         0.433589         1.012891
 O         1.869154        -0.114760         0.576982
 C        -0.691459         2.357699         1.559135
 H         1.512544         3.547631         1.682862
 H         1.049534         0.709692         3.980641
 H        -0.441155         1.660257         3.843838
 H        -0.663496        -0.980343         2.630339
 H        -2.387082         0.951927         1.685629
 H        -0.804384        -0.691155        -0.201158
 H        -0.712569         0.982513        -0.924129
 H         2.127066        -0.978234         0.752407
 H        -0.879496         2.908105         0.663001
 H        -1.231958         2.861498         2.398666
