19
Iteration:  4473
 O         1.690624         2.676058         1.551143
 C         0.589831         1.887218         1.855724
 C         0.422085         1.092126         3.188909
 C        -0.304759         0.104342         2.355841
 C        -1.324648         0.917691         1.327408
 C        -0.468990         0.340889         0.074071
 C         0.604258         0.328516         1.120947
 O         1.865793        -0.228499         0.989182
 C        -0.813466         2.354066         1.412611
 H         1.623800         3.357239         2.245060
 H         1.444499         0.769881         3.411200
 H        -0.151158         1.667718         3.926821
 H        -0.478698        -0.923448         2.587322
 H        -2.460711         0.917345         1.411500
 H        -0.617672        -0.815733        -0.180129
 H        -0.442433         0.948978        -0.865760
 H         2.486108         0.348540         0.604385
 H        -0.922588         2.840868         0.399247
 H        -1.250714         2.811919         2.303334
