19
Iteration:  1684
 O         1.712566         2.722476         1.911128
 C         0.654911         1.875519         1.999590
 C         0.365639         1.053407         3.237737
 C        -0.277056         0.061653         2.170623
 C        -1.298488         0.855062         1.317666
 C        -0.596324         0.441382         0.100808
 C         0.594046         0.390921         0.986453
 O         1.941631        -0.147336         0.607775
 C        -0.765765         2.391120         1.632727
 H         2.249304         2.454352         1.135176
 H         1.144643         0.481541         3.842317
 H        -0.383213         1.494348         3.919550
 H        -0.566352        -0.993705         2.292814
 H        -2.481809         0.837158         1.412896
 H        -0.981857        -0.585346        -0.219407
 H        -0.687980         0.966855        -0.869795
 H         1.746583        -0.959027         0.216315
 H        -0.812030         2.806655         0.633278
 H        -1.223064         2.868478         2.508011
