19
Iteration:  1947
 O         1.611989         2.823346         1.819954
 C         0.655135         1.782930         1.875717
 C         0.608417         0.941539         3.072731
 C        -0.302773         0.093419         2.201629
 C        -1.363041         0.850326         1.336630
 C        -0.550304         0.600638        -0.042656
 C         0.641582         0.491707         1.052405
 O         1.804608        -0.238830         0.968556
 C        -0.784309         2.233815         1.615174
 H         2.002318         2.989711         0.946180
 H         1.508113         0.437287         3.284807
 H         0.184924         1.423096         4.009352
 H        -0.459074        -0.936676         2.369504
 H        -2.436620         0.559606         1.552375
 H        -0.749142        -0.315265        -0.529635
 H        -0.365937         1.413478        -0.750634
 H         1.560885        -1.169964         0.607976
 H        -0.783683         2.933903         0.772549
 H        -1.399875         2.777320         2.308771
