19
Iteration:  1848charge 0 multiplicity 1
 O         1.745852         2.667159         1.958386
 C         0.601969         1.807339         1.907850
 C         0.396669         0.982312         3.149878
 C        -0.299752        -0.000901         2.292982
 C        -1.339701         0.914878         1.371641
 C        -0.659850         0.378677         0.112039
 C         0.604362         0.487566         1.037699
 O         1.962926         0.006554         0.689020
 C        -0.731221         2.341895         1.430474
 H         2.109595         2.774861         1.062206
 H         1.361883         0.620016         3.591356
 H        -0.275235         1.425286         3.947950
 H        -0.598590        -1.031754         2.397092
 H        -2.499825         0.906056         1.643533
 H        -0.839809        -0.754486        -0.093568
 H        -0.973205         0.857196        -0.907546
 H         1.816874        -0.921619         0.235754
 H        -0.653540         2.753694         0.412638
 H        -1.065241         3.051732         2.246477
