19
Iteration:  3369
 O         1.711090         2.752148         1.669464
 C         0.664659         1.811296         1.845044
 C         0.552959         0.963817         3.195322
 C        -0.392073         0.054612         2.267096
 C        -1.379929         0.948520         1.320448
 C        -0.455813         0.445871         0.036033
 C         0.566169         0.416120         1.129862
 O         1.800140        -0.255316         0.920632
 C        -0.794294         2.320960         1.544122
 H         1.311569         3.452322         1.099903
 H         1.470682         0.370818         3.312529
 H         0.369882         1.341181         4.161688
 H        -0.789065        -0.926341         2.553155
 H        -2.516791         0.657780         1.168076
 H        -0.841346        -0.547560        -0.367469
 H        -0.393961         1.210983        -0.809003
 H         2.606069         0.320309         1.197783
 H        -0.772350         2.850562         0.545620
 H        -1.180594         3.169603         2.161880
