19
Iteration:  1720
 O         1.762833         2.656819         1.914466
 C         0.640832         1.830409         1.917885
 C         0.467453         0.990352         3.202746
 C        -0.354053         0.042531         2.242032
 C        -1.363952         0.844570         1.347282
 C        -0.612699         0.382611         0.088085
 C         0.573442         0.402848         1.070811
 O         1.839381         0.092509         0.632802
 C        -0.700575         2.305046         1.478993
 H         2.490339         2.167651         2.357135
 H         1.358310         0.551710         3.577175
 H        -0.055984         1.584551         3.993271
 H        -0.544429        -0.991196         2.518440
 H        -2.467729         0.799406         1.445728
 H        -0.932751        -0.612426        -0.103115
 H        -0.665004         1.069300        -0.684994
 H         1.884170        -0.619738         0.056818
 H        -0.682525         2.781899         0.435302
 H        -1.239096         3.100836         1.990196
