19
Iteration:   502charge 0 multiplicity 1
 O         1.791931         2.727696         1.918237
 C         0.711967         1.776944         1.937471
 C         0.443378         0.979531         3.236266
 C        -0.391790         0.032458         2.213239
 C        -1.332502         0.896448         1.310767
 C        -0.668944         0.251031         0.038504
 C         0.623921         0.524400         0.988334
 O         1.751861         0.005615         0.598927
 C        -0.696097         2.318648         1.543866
 H         2.565405         2.432286         2.454024
 H         1.175554         0.341729         3.711678
 H        -0.137902         1.488707         4.005209
 H        -0.551893        -0.996688         2.292306
 H        -2.402134         0.721233         1.581402
 H        -0.824590        -0.773811         0.069113
 H        -0.803167         0.693139        -0.898952
 H         2.529454         0.637899         0.759894
 H        -0.773360         2.961011         0.643019
 H        -1.175220         2.806024         2.392084
