19
Iteration:  4609charge 0 multiplicity 1
 O         1.668429         2.695497         1.540079
 C         0.586345         1.846548         1.792903
 C         0.317664         1.158230         3.170552
 C        -0.318349         0.091144         2.295864
 C        -1.421454         0.902637         1.370964
 C        -0.535316         0.336341         0.148930
 C         0.687235         0.397583         1.144478
 O         2.015985        -0.229667         0.997998
 C        -0.823487         2.333063         1.424985
 H         2.479593         2.257467         1.872263
 H         1.280447         0.605740         3.470186
 H        -0.185243         1.785843         3.974848
 H        -0.605187        -0.953103         2.560937
 H        -2.440157         0.679285         1.319326
 H        -0.822651        -0.561320        -0.231698
 H        -0.406844         1.087679        -0.619725
 H         2.571275         0.449436         0.660365
 H        -0.884734         2.884088         0.450958
 H        -1.265500         2.913204         2.264346
