19
Iteration:  3529charge 0 multiplicity 1
 O         1.761073         2.862667         1.682597
 C         0.667967         1.795920         1.871868
 C         0.510670         0.997400         3.198820
 C        -0.321647         0.081518         2.166342
 C        -1.388776         0.909172         1.276198
 C        -0.543055         0.451648        -0.001955
 C         0.601038         0.395929         1.031074
 O         1.822671        -0.323119         1.035426
 C        -0.835318         2.301118         1.633288
 H         1.633588         3.123652         0.730657
 H         1.485637         0.491961         3.561447
 H        -0.012343         1.368810         4.148468
 H        -0.511846        -0.930559         2.560795
 H        -2.401765         0.642756         1.603422
 H        -0.871425        -0.420937        -0.566059
 H        -0.589758         1.324228        -0.687038
 H         2.400364         0.116407         0.321595
 H        -0.824035         3.021900         0.814934
 H        -1.351703         2.822876         2.439213
