19
Iteration:  1297charge 0 multiplicity 1
 O         1.673767         2.739015         1.634850
 C         0.675270         1.782079         1.882442
 C         0.309939         0.911573         3.232055
 C        -0.346676         0.041251         2.190871
 C        -1.331018         0.885668         1.332133
 C        -0.503474         0.547757         0.110387
 C         0.647245         0.469539         1.024557
 O         1.897373        -0.143683         0.805780
 C        -0.762116         2.315310         1.668383
 H         2.312131         2.767319         2.378045
 H         1.280913         0.369380         3.518898
 H        -0.151672         1.537978         4.009680
 H        -0.661077        -1.061777         2.445403
 H        -2.427850         0.670213         1.553398
 H        -0.826507        -0.402151        -0.369594
 H        -0.418322         1.170902        -0.768820
 H         1.922054        -0.448829        -0.095749
 H        -0.774488         3.038589         0.866026
 H        -1.078032         2.790078         2.633250
