19
Iteration:  4390
 O         1.727186         2.704276         1.639526
 C         0.682743         1.751384         1.773531
 C         0.309828         1.176882         3.262235
 C        -0.387805         0.197434         2.331909
 C        -1.395157         0.835273         1.319632
 C        -0.578807         0.299708         0.147378
 C         0.712332         0.451071         1.095710
 O         1.940418        -0.239738         0.863523
 C        -0.737405         2.244607         1.429551
 H         1.585952         3.417262         2.296684
 H         1.376594         0.848746         3.629961
 H        -0.165663         1.876363         3.996558
 H        -0.694820        -0.808559         2.778781
 H        -2.556353         0.704383         1.279859
 H        -0.750379        -0.688417        -0.268602
 H        -0.587610         0.946276        -0.818075
 H         2.465721         0.437737         0.464036
 H        -0.869373         2.914215         0.463281
 H        -1.163835         2.821928         2.321048
