19
Iteration:  2472charge 0 multiplicity 1
 O         1.627506         2.953027         1.966551
 C         0.648561         1.895700         1.929534
 C         0.542171         1.010943         3.122486
 C        -0.269282         0.063411         2.281941
 C        -1.330394         0.862648         1.367499
 C        -0.563733         0.353970         0.107652
 C         0.639779         0.408351         1.023199
 O         1.764184        -0.463786         0.792414
 C        -0.749207         2.395024         1.345999
 H         1.301233         3.448945         1.194425
 H         1.559486         0.597678         3.319794
 H         0.206667         1.600245         4.019457
 H        -0.439574        -1.122150         2.512415
 H        -2.387444         0.717526         1.400130
 H        -0.922082        -0.564046        -0.254074
 H        -0.410787         0.940506        -0.724015
 H         2.475755         0.092932         0.622340
 H        -0.728991         2.751680         0.299345
 H        -1.354132         3.213068         1.855853
