19
Iteration:  4439charge 0 multiplicity 1
 O         1.770277         2.546554         1.421246
 C         0.622019         1.828304         1.818144
 C         0.413863         1.073594         3.177539
 C        -0.381802         0.075528         2.252733
 C        -1.415224         0.878897         1.330682
 C        -0.551239         0.407331         0.074600
 C         0.637832         0.484387         1.132560
 O         1.962778        -0.103023         1.099527
 C        -0.836379         2.264009         1.504808
 H         1.921043         3.355233         1.931068
 H         1.261569         0.643773         3.616436
 H        -0.092910         1.614556         3.979463
 H        -0.413940        -0.959493         2.534064
 H        -2.472940         0.871022         1.279049
 H        -0.725242        -0.764156         0.013615
 H        -0.690604         0.950065        -0.861993
 H         2.505784         0.706055         1.245208
 H        -0.883988         2.927761         0.693379
 H        -1.417337         2.794935         2.252659
