19
Iteration:  4690
 O         1.596109         2.956073         1.701394
 C         0.653104         1.937565         1.844588
 C         0.447937         1.211304         3.182004
 C        -0.255512         0.132995         2.325687
 C        -1.330106         0.827665         1.300892
 C        -0.493552         0.315366         0.082731
 C         0.580337         0.326610         1.104713
 O         1.833500        -0.408830         0.977830
 C        -0.739981         2.245982         1.391931
 H         2.459554         2.515853         1.889638
 H         1.408106         0.968561         3.681329
 H        -0.337103         1.746243         3.951241
 H        -0.603819        -0.851913         2.638793
 H        -2.498202         0.664442         1.226761
 H        -0.575850        -0.782619        -0.378110
 H        -0.539928         0.818166        -0.891804
 H         2.109687        -0.212393         0.082913
 H        -0.757334         2.902099         0.520678
 H        -1.303542         2.898588         2.143701
