19
Iteration:  1592
 O         1.784904         2.639046         1.775991
 C         0.696445         1.802508         1.904798
 C         0.402628         0.966135         3.197757
 C        -0.431399         0.067571         2.258112
 C        -1.409489         0.921338         1.335812
 C        -0.490656         0.426957         0.037386
 C         0.607867         0.495720         1.101506
 O         1.864498        -0.026816         0.671665
 C        -0.744681         2.275222         1.608335
 H         1.587816         3.524934         2.107428
 H         1.231918         0.417089         3.562094
 H        -0.184272         1.377436         4.039357
 H        -0.799212        -0.940512         2.544676
 H        -2.399298         0.837437         1.317086
 H        -0.493136        -0.588235        -0.343775
 H        -0.294975         0.983435        -0.933856
 H         1.827423        -1.042102         0.504862
 H        -0.749196         2.804883         0.744365
 H        -1.095663         2.762028         2.482482
