19
Iteration:  3400charge 0 multiplicity 1
 O         1.791349         2.644666         1.678752
 C         0.665836         1.775893         1.828157
 C         0.317018         1.116387         3.200385
 C        -0.280121         0.015646         2.243807
 C        -1.380732         0.978418         1.379127
 C        -0.549811         0.413881         0.025855
 C         0.643687         0.441765         1.073311
 O         1.896846        -0.206739         0.838640
 C        -0.813579         2.322258         1.647989
 H         1.714037         3.112157         0.837100
 H         1.185120         0.715043         3.744662
 H        -0.359071         1.564622         3.850045
 H        -0.739987        -0.947908         2.455401
 H        -2.473614         0.684696         1.207982
 H        -0.950681        -0.600085        -0.108293
 H        -0.676622         0.984200        -0.872759
 H         2.607697         0.328871         1.087530
 H        -0.873542         2.882199         0.692226
 H        -1.079062         2.882928         2.560993
