19
Iteration:  4976charge 0 multiplicity 1
 O         1.676810         2.794928         1.700954
 C         0.605185         1.891905         1.791074
 C         0.406165         1.133095         3.105338
 C        -0.309786         0.119354         2.302775
 C        -1.336782         0.844395         1.387803
 C        -0.570969         0.298579         0.124250
 C         0.651362         0.402792         1.123861
 O         1.883230        -0.255018         0.981857
 C        -0.811049         2.303995         1.307437
 H         2.569354         2.491708         1.925758
 H         1.358182         0.777338         3.614219
 H        -0.036076         1.563807         4.072230
 H        -0.568784        -0.949050         2.535319
 H        -2.402090         0.658711         1.469413
 H        -0.805705        -0.747516        -0.235094
 H        -0.499755         1.036296        -0.672545
 H         2.589589         0.348600         0.850998
 H        -0.932566         2.657218         0.202748
 H        -1.262910         2.986517         2.117693
