19
Iteration:  4712charge 0 multiplicity 1
 O         1.643494         2.829999         1.579172
 C         0.634516         1.862843         1.849488
 C         0.354476         1.147715         3.192823
 C        -0.395781         0.171989         2.283091
 C        -1.309587         0.848610         1.303129
 C        -0.469295         0.301945         0.201316
 C         0.674533         0.461607         1.113299
 O         1.835731        -0.306113         0.971125
 C        -0.787760         2.294837         1.446008
 H         2.466033         2.378242         1.810770
 H         1.281448         0.596286         3.401730
 H        -0.123845         1.792134         4.085878
 H        -0.256946        -0.880267         2.429011
 H        -2.375388         0.418149         1.231702
 H        -0.422593        -0.790530        -0.070010
 H        -0.357819         0.679456        -0.805237
 H         2.505999         0.073864         0.314832
 H        -0.873733         2.744574         0.450747
 H        -1.349189         2.928885         2.196049
