19
Iteration:  1911
 O         1.699009         2.728626         1.764106
 C         0.701119         1.807545         1.891413
 C         0.400834         0.898696         3.154759
 C        -0.383894         0.087057         2.219390
 C        -1.356068         0.991044         1.340568
 C        -0.522843         0.425685         0.071669
 C         0.584959         0.412725         1.075761
 O         1.981286        -0.060006         0.800028
 C        -0.820881         2.318070         1.630392
 H         1.753120         2.861660         0.802844
 H         1.311910         0.356836         3.550454
 H        -0.168891         1.374538         3.911608
 H        -0.653950        -0.991947         2.383614
 H        -2.441455         0.622229         1.550711
 H        -0.776211        -0.582245        -0.121500
 H        -0.406097         0.985931        -0.836215
 H         1.828131        -0.953428         0.288162
 H        -0.708093         2.994747         0.777477
 H        -1.269846         2.747282         2.580688
