19
Iteration:  3035
 O         1.818138         2.662255         1.763761
 C         0.600134         1.831502         1.859759
 C         0.440299         1.085749         3.211743
 C        -0.428316         0.034099         2.293443
 C        -1.368738         0.898342         1.319631
 C        -0.541366         0.325708         0.041112
 C         0.614515         0.434640         1.104247
 O         1.845571        -0.173552         0.759924
 C        -0.708796         2.349535         1.546916
 H         1.583124         3.469400         1.233830
 H         1.334140         0.626424         3.568439
 H        -0.225986         1.613623         3.872885
 H        -0.536902        -0.990111         2.769523
 H        -2.533297         0.830470         1.476152
 H        -0.841805        -0.725776         0.003295
 H        -0.478750         0.833365        -1.006102
 H         2.513737         0.617187         0.689981
 H        -0.844242         2.964602         0.633774
 H        -1.291848         2.808832         2.372746
