19
Iteration:  2245
 O         1.651635         2.805033         1.802195
 C         0.624311         1.755006         1.862599
 C         0.479593         1.003417         3.122830
 C        -0.346914         0.077036         2.237006
 C        -1.318919         0.937744         1.366556
 C        -0.515704         0.552657         0.014117
 C         0.614562         0.362217         1.001487
 O         1.851382        -0.291019         0.971086
 C        -0.783399         2.232917         1.502808
 H         1.396656         3.383733         1.066895
 H         1.488441         0.595841         3.426753
 H         0.188850         1.355772         4.116893
 H        -0.523038        -1.019365         2.584144
 H        -2.351491         0.806515         1.504020
 H        -0.647485        -0.443007        -0.424636
 H        -0.514329         1.350848        -0.675842
 H         2.488181         0.356769         0.555051
 H        -0.950181         2.739521         0.478888
 H        -1.084036         2.979353         2.231180
