19
Iteration:   540
 O         1.740086         2.534472         1.703626
 C         0.652026         1.720873         1.901138
 C         0.425722         0.943275         3.201958
 C        -0.331859        -0.012123         2.263622
 C        -1.323895         0.899177         1.388885
 C        -0.532683         0.590496         0.085476
 C         0.596752         0.408273         0.998704
 O         1.886583        -0.067389         0.700217
 C        -0.847460         2.366350         1.610543
 H         1.612654         3.323929         2.250248
 H         1.468022         0.664976         3.502711
 H        -0.130936         1.406251         4.066010
 H        -0.708884        -1.101396         2.449862
 H        -2.452712         0.785150         1.506680
 H        -0.923354        -0.315730        -0.545663
 H        -0.454060         1.506371        -0.654796
 H         2.554134         0.709349         0.879334
 H        -0.890051         2.964460         0.685102
 H        -1.176528         2.963281         2.501790
