19
Iteration:  3992charge 0 multiplicity 1
 O         1.731145         2.595863         1.467689
 C         0.580704         1.834447         1.850186
 C         0.393283         1.003865         3.196354
 C        -0.338373         0.050919         2.242223
 C        -1.301712         0.897835         1.301767
 C        -0.433858         0.410624         0.133609
 C         0.665121         0.443054         1.108413
 O         1.841325        -0.172045         1.009355
 C        -0.816077         2.387279         1.593093
 H         1.506397         3.454363         1.820262
 H         1.329545         0.641238         3.511768
 H        -0.065149         1.551029         4.061294
 H        -0.547574        -1.085695         2.461074
 H        -2.359072         0.667052         1.378433
 H        -0.863814        -0.503682        -0.349180
 H        -0.559255         1.127720        -0.704318
 H         2.376930         0.534959         0.607111
 H        -0.867319         2.986622         0.665217
 H        -1.508641         2.888728         2.321755
