19
Iteration:  1325
 O         1.595237         2.841739         1.673691
 C         0.687506         1.769100         1.906936
 C         0.522256         0.789838         3.199632
 C        -0.350731         0.000167         2.133211
 C        -1.366604         0.982028         1.252649
 C        -0.562969         0.536722        -0.014218
 C         0.599055         0.427153         0.998949
 O         1.893761        -0.137190         1.014339
 C        -0.764148         2.369485         1.721218
 H         2.182466         2.460236         0.977811
 H         1.448230         0.247024         3.320772
 H         0.221294         1.371636         4.082756
 H        -0.690136        -0.960386         2.312463
 H        -2.442705         0.722990         1.411361
 H        -0.896583        -0.525238        -0.159951
 H        -0.408239         1.306360        -0.912895
 H         2.001077        -0.974633         0.449478
 H        -0.692020         3.214735         0.992974
 H        -1.138399         2.772951         2.657742
