19
Iteration:  4547charge 0 multiplicity 1
 O         1.708901         2.714896         1.592230
 C         0.621389         1.855231         1.827069
 C         0.429354         1.125370         3.203890
 C        -0.362523         0.122552         2.315394
 C        -1.360825         0.903843         1.348134
 C        -0.539179         0.283865         0.138203
 C         0.619687         0.458734         1.080546
 O         1.931128        -0.234618         0.937347
 C        -0.851549         2.296540         1.374589
 H         2.005350         2.815216         2.513247
 H         1.391468         0.694559         3.349601
 H         0.124957         1.715879         4.054735
 H        -0.869508        -0.770539         2.704611
 H        -2.439708         0.765466         1.362479
 H        -0.784515        -0.789531        -0.131935
 H        -0.602038         0.725113        -0.889496
 H         2.771679         0.241544         1.057690
 H        -0.696249         2.759539         0.448987
 H        -1.235155         2.993040         2.111906
