19
Iteration:  1804charge 0 multiplicity 1
 O         1.617008         2.798526         1.743131
 C         0.674595         1.847924         1.912659
 C         0.503179         0.916638         3.122012
 C        -0.328584         0.015088         2.193036
 C        -1.387506         0.914980         1.334508
 C        -0.441447         0.595123         0.063599
 C         0.654151         0.460006         1.036264
 O         1.853921        -0.240072         0.848397
 C        -0.839354         2.315895         1.673342
 H         2.154423         2.681444         0.949014
 H         1.553916         0.466470         3.230473
 H         0.204855         1.331440         4.121941
 H        -0.536907        -0.925000         2.713388
 H        -2.559847         0.721908         1.208184
 H        -0.661865        -0.517044        -0.336006
 H        -0.253615         1.336030        -0.847342
 H         1.549615        -1.198760         0.576117
 H        -1.040691         3.038489         0.847512
 H        -1.380179         2.741811         2.568015
