19
Iteration:  3626
 O         1.853949         2.510858         1.699622
 C         0.598426         1.843688         1.912205
 C         0.235832         1.068946         3.221106
 C        -0.256636         0.046612         2.335074
 C        -1.279556         0.953502         1.293295
 C        -0.624025         0.276427         0.153907
 C         0.627347         0.384739         1.046531
 O         1.901572        -0.050892         0.687366
 C        -0.806367         2.381813         1.509397
 H         1.599054         3.452777         1.882522
 H         1.215192         0.985973         3.687043
 H        -0.222413         1.642638         4.026101
 H        -0.673185        -0.982762         2.539786
 H        -2.350317         0.802540         1.238857
 H        -0.897620        -0.803675         0.223158
 H        -0.606855         0.879073        -0.865728
 H         2.505654         0.606071         0.961955
 H        -0.619376         3.092082         0.638501
 H        -1.386242         2.875320         2.324108
