19
Iteration:  4444
 O         1.797936         2.585133         1.419384
 C         0.635265         1.799177         1.863985
 C         0.392753         1.085069         3.114266
 C        -0.394012         0.106332         2.256445
 C        -1.405781         0.859094         1.304230
 C        -0.585013         0.400836         0.091442
 C         0.635006         0.406211         1.089189
 O         1.963783        -0.085253         1.118647
 C        -0.826764         2.239846         1.546757
 H         1.754897         3.350843         2.045125
 H         1.330296         0.707747         3.665866
 H         0.004790         1.778351         3.915232
 H        -0.504539        -0.974114         2.492850
 H        -2.566587         0.801482         1.236769
 H        -0.677696        -0.637212         0.072215
 H        -0.688277         1.080354        -0.784644
 H         2.640862         0.623454         1.171724
 H        -0.965319         2.950378         0.624181
 H        -1.343754         2.940153         2.264624
