19
Iteration:  4317charge 0 multiplicity 1
 O         1.721277         2.798324         1.526881
 C         0.643292         1.795124         1.763417
 C         0.395592         1.140697         3.209881
 C        -0.367828         0.069560         2.342087
 C        -1.350184         0.879088         1.275360
 C        -0.511596         0.367367         0.071292
 C         0.598559         0.323866         1.124341
 O         1.871693        -0.247334         0.979618
 C        -0.733958         2.299908         1.539190
 H         1.813318         3.298722         2.345233
 H         1.237371         0.633575         3.604436
 H        -0.280535         1.625311         3.917562
 H        -0.567403        -1.005482         2.713098
 H        -2.435422         0.829857         1.308931
 H        -0.791763        -0.535133        -0.517873
 H        -0.454428         0.979260        -0.788658
 H         2.449297         0.555772         0.737344
 H        -0.794008         2.966086         0.744565
 H        -1.163543         2.711877         2.433763
