19
Iteration:  3703charge 0 multiplicity 1
 O         1.637409         2.768978         1.495970
 C         0.643390         1.918330         1.874537
 C         0.372336         1.022287         3.164735
 C        -0.392937         0.098861         2.223833
 C        -1.303498         0.858844         1.279242
 C        -0.442609         0.487058         0.096881
 C         0.736310         0.429525         1.084891
 O         1.827843        -0.353919         0.933215
 C        -0.803814         2.315671         1.701558
 H         2.019337         3.197243         2.293645
 H         1.334497         0.589038         3.508666
 H        -0.122375         1.511737         4.037288
 H        -0.759515        -0.852775         2.639864
 H        -2.389087         0.657841         1.207941
 H        -0.598041        -0.598568        -0.237849
 H        -0.654500         1.078472        -0.932457
 H         2.688189        -0.095728         0.455386
 H        -0.925176         3.035531         0.837779
 H        -1.165395         2.656552         2.722460
