19
Iteration:  3236charge 0 multiplicity 1
 O         1.820908         2.660024         1.605032
 C         0.668125         1.875665         1.856786
 C         0.321411         1.048481         3.170303
 C        -0.348678         0.070810         2.196338
 C        -1.352214         0.761582         1.331635
 C        -0.593588         0.400340         0.058342
 C         0.625615         0.430448         1.043109
 O         1.833193        -0.185051         0.906656
 C        -0.733694         2.389050         1.680847
 H         1.437567         3.453427         1.180528
 H         1.238546         0.685250         3.732935
 H        -0.313175         1.538391         3.915083
 H        -0.414803        -0.998183         2.407860
 H        -2.460605         0.764435         1.556477
 H        -0.605437        -0.676001        -0.322578
 H        -0.434581         1.222456        -0.772433
 H         2.566204         0.226287         1.400773
 H        -0.814601         2.829848         0.684323
 H        -1.121109         3.019836         2.492560
