19
Iteration:  3244
 O         1.762268         2.642717         1.631124
 C         0.637654         1.865090         1.869337
 C         0.391815         0.996788         3.185842
 C        -0.314111         0.089711         2.184591
 C        -1.393674         0.896667         1.373673
 C        -0.587044         0.327130         0.059067
 C         0.671183         0.492765         0.977061
 O         1.857095        -0.189740         0.930272
 C        -0.737786         2.339496         1.653386
 H         1.507585         3.462659         1.181283
 H         1.276373         0.726097         3.696247
 H        -0.332799         1.475222         3.760598
 H        -0.660670        -0.962513         2.365076
 H        -2.414969         0.958946         1.443294
 H        -0.727370        -0.667887        -0.295154
 H        -0.641957         0.990561        -0.855616
 H         2.587596         0.188864         1.518951
 H        -0.826993         2.849248         0.636802
 H        -1.103308         3.021107         2.444951
