19
Iteration:   619
 O         1.699079         2.778454         1.961215
 C         0.711691         1.778410         1.876414
 C         0.516591         0.950908         3.188219
 C        -0.306013         0.035041         2.205124
 C        -1.396393         0.903104         1.352300
 C        -0.599728         0.560510         0.056521
 C         0.623419         0.402849         0.985852
 O         1.806279        -0.256985         0.684839
 C        -0.773263         2.273083         1.550585
 H         1.636400         3.451955         1.262777
 H         1.358868         0.393503         3.584557
 H        -0.002654         1.467068         4.042271
 H        -0.653344        -1.034666         2.494236
 H        -2.363238         0.760094         1.549198
 H        -0.987962        -0.439432        -0.310731
 H        -0.502814         1.359347        -0.769163
 H         2.533732         0.438520         0.751222
 H        -0.735116         2.843108         0.647454
 H        -1.100850         2.951776         2.348730
