19
Iteration:  3359
 O         1.701852         2.754161         1.736692
 C         0.689248         1.792472         1.860021
 C         0.571801         0.978055         3.118039
 C        -0.401951         0.057340         2.310988
 C        -1.412959         0.934087         1.232253
 C        -0.530179         0.494373         0.047098
 C         0.617035         0.450734         1.110803
 O         1.771754        -0.270393         0.942311
 C        -0.749937         2.250634         1.506513
 H         1.264286         3.459585         1.219259
 H         1.542896         0.479596         3.209466
 H         0.259800         1.562712         4.017231
 H        -0.593685        -0.859818         2.873559
 H        -2.562590         1.101670         1.495822
 H        -0.609268        -0.636196        -0.192084
 H        -0.186279         1.049082        -0.921771
 H         2.581090         0.419428         0.855372
 H        -0.934606         2.691870         0.500703
 H        -1.155057         2.880840         2.369136
