19
Iteration:  2125charge 0 multiplicity 1
 O         1.712604         2.919684         1.797650
 C         0.679687         1.838121         1.896964
 C         0.468954         0.918567         3.164971
 C        -0.320269         0.173185         2.200033
 C        -1.323383         0.919045         1.204004
 C        -0.479901         0.375764         0.019572
 C         0.643262         0.429623         1.016556
 O         1.754909        -0.409047         0.822554
 C        -0.813384         2.330718         1.678565
 H         1.300709         3.698969         1.373839
 H         1.503758         0.543135         3.615787
 H        -0.188606         1.218053         4.045733
 H        -0.553022        -0.950116         2.388505
 H        -2.350123         0.789104         1.371399
 H        -0.768910        -0.707724        -0.159814
 H        -0.463088         1.031118        -0.814326
 H         2.676448         0.085179         0.863369
 H        -1.108167         3.249434         1.032987
 H        -1.202583         2.439469         2.702716
