19
Iteration:  4572charge 0 multiplicity 1
 O         1.759444         2.649083         1.472898
 C         0.702496         1.834448         1.860557
 C         0.340681         1.105414         3.215922
 C        -0.349816         0.114298         2.293634
 C        -1.339756         0.848760         1.287842
 C        -0.500486         0.250468         0.152751
 C         0.490294         0.416955         1.164208
 O         1.862382        -0.053152         1.006108
 C        -0.793342         2.303019         1.422863
 H         2.397317         2.621250         2.198716
 H         1.279631         0.594005         3.543168
 H        -0.114727         1.665974         4.042521
 H        -0.440959        -0.922856         2.589517
 H        -2.524508         0.811287         1.335340
 H        -0.647705        -0.779159        -0.413342
 H        -0.341262         0.887335        -0.749128
 H         2.339216         0.682832         0.687670
 H        -0.768841         2.987791         0.525077
 H        -1.148062         2.824827         2.314841
