19
Iteration:  4805charge 0 multiplicity 1
 O         1.713133         2.704334         1.664493
 C         0.659694         1.815604         1.807059
 C         0.313422         1.213217         3.199835
 C        -0.351851         0.121057         2.398608
 C        -1.316035         0.851148         1.319535
 C        -0.490813         0.285660         0.150084
 C         0.629779         0.431796         1.096065
 O         1.895701        -0.257614         0.799210
 C        -0.760620         2.284882         1.436095
 H         1.439709         3.636631         1.816062
 H         1.245058         0.805107         3.701705
 H        -0.232098         1.878504         3.785693
 H        -0.683350        -0.985289         2.736956
 H        -2.443447         0.831740         1.349300
 H        -0.565941        -0.820096        -0.090186
 H        -0.510195         0.626810        -0.962313
 H         2.493374         0.378924         1.145097
 H        -0.776113         2.950525         0.559545
 H        -1.321529         2.889789         2.162153
