19
Iteration:  3661charge 0 multiplicity 1
 O         1.757304         2.653447         1.616740
 C         0.614491         1.755528         1.864541
 C         0.465349         1.048389         3.163173
 C        -0.390186         0.092765         2.267035
 C        -1.323067         0.839384         1.342920
 C        -0.592652         0.439133         0.080787
 C         0.576595         0.540817         1.061604
 O         1.860162        -0.171373         0.969050
 C        -0.735864         2.245594         1.503081
 H         1.598811         3.437971         2.205850
 H         1.412105         0.407875         3.125066
 H         0.199384         1.526851         4.106808
 H        -0.617724        -0.904249         2.537613
 H        -2.450654         0.795876         1.360108
 H        -0.809572        -0.494687        -0.484976
 H        -0.609821         1.192988        -0.786466
 H         2.403263         0.546880         0.791028
 H        -0.545371         2.799265         0.609374
 H        -1.250788         2.820207         2.280957
