19
Iteration:   385charge 0 multiplicity 1
 O         1.729160         2.677626         1.839527
 C         0.663050         1.804144         1.859023
 C         0.465463         0.858635         3.204411
 C        -0.312727        -0.009492         2.179588
 C        -1.353499         0.858206         1.374554
 C        -0.592977         0.579629        -0.036158
 C         0.583103         0.510756         1.034487
 O         1.867673        -0.006548         0.751899
 C        -0.810708         2.304493         1.600643
 H         2.482364         2.070490         1.616320
 H         1.504473         0.552648         3.545094
 H        -0.109589         1.287472         4.028770
 H        -0.582998        -1.036080         2.344960
 H        -2.479255         0.517181         1.372545
 H        -0.800372        -0.431863        -0.470502
 H        -0.716076         1.579665        -0.577852
 H         2.044875        -0.660613         1.424631
 H        -0.816787         3.031001         0.706698
 H        -1.191728         2.877199         2.458766
