19
Iteration:  2161charge 0 multiplicity 1
 O         1.710936         2.615081         1.961249
 C         0.593474         1.816573         1.825441
 C         0.417595         1.026277         3.170094
 C        -0.323930         0.045344         2.326559
 C        -1.332179         0.904967         1.391948
 C        -0.580087         0.359470         0.115545
 C         0.622585         0.415945         1.064395
 O         1.850488        -0.078851         0.647301
 C        -0.694032         2.337695         1.366543
 H         1.620246         3.327978         1.288928
 H         1.397170         0.668497         3.604543
 H        -0.294751         1.490959         3.871339
 H        -0.552678        -0.921576         2.672799
 H        -2.350791         0.601764         1.690865
 H        -0.937078        -0.608372        -0.392742
 H        -0.510444         1.122546        -0.759394
 H         2.561045         0.385488         1.253360
 H        -0.733161         2.755246         0.341249
 H        -1.038039         3.106246         2.082655
