19
Iteration:  2323
 O         1.637046         2.800542         1.922468
 C         0.634857         1.829965         1.853625
 C         0.447797         1.097260         3.230206
 C        -0.304445         0.038702         2.275285
 C        -1.325358         0.841947         1.410492
 C        -0.555364         0.446195         0.085439
 C         0.644388         0.436384         1.033487
 O         1.790622        -0.300383         0.782097
 C        -0.680638         2.266404         1.364330
 H         1.763102         3.375041         1.149793
 H         1.373163         0.527271         3.539884
 H        -0.137489         1.643712         3.970838
 H        -0.619068        -0.892503         2.694702
 H        -2.405564         0.723320         1.558780
 H        -0.778725        -0.594278        -0.277488
 H        -0.403929         1.122439        -0.797801
 H         2.382806         0.312104         0.180712
 H        -0.668775         2.580983         0.261403
 H        -1.101349         3.100481         1.939949
