19
Iteration:  2382
 O         1.781897         2.470012         1.618469
 C         0.583480         1.760791         1.867724
 C         0.463927         1.058596         3.204461
 C        -0.407492         0.057937         2.306927
 C        -1.390639         0.877569         1.254240
 C        -0.507096         0.498913         0.080231
 C         0.595027         0.411192         1.093659
 O         1.927403         0.006477         0.925436
 C        -0.832164         2.272596         1.522330
 H         1.592223         3.076174         0.870344
 H         1.423556         0.679512         3.511382
 H         0.102630         1.574262         4.145940
 H        -0.772802        -0.889528         2.780171
 H        -2.491423         0.778236         1.212040
 H        -0.781584        -0.412774        -0.385845
 H        -0.282355         1.195102        -0.626868
 H         2.512533         0.706603         1.122229
 H        -0.954166         3.035654         0.739202
 H        -1.170444         2.760581         2.488352
