19
Iteration:  2763
 O         1.630230         2.759862         1.881326
 C         0.678017         1.761534         1.819005
 C         0.440758         1.089299         3.179831
 C        -0.274798         0.057207         2.320537
 C        -1.336243         0.925626         1.328343
 C        -0.551102         0.378018         0.068697
 C         0.561865         0.354588         1.088791
 O         1.906506        -0.123333         0.822756
 C        -0.793119         2.378679         1.386863
 H         2.289785         2.675441         1.162592
 H         1.334126         0.606834         3.575927
 H         0.050061         1.716793         4.035882
 H        -0.708266        -0.934181         2.688908
 H        -2.468011         0.597732         1.617965
 H        -0.746759        -0.591711        -0.367951
 H        -0.438556         1.120571        -0.748631
 H         1.956081        -1.081583         0.383764
 H        -0.702165         2.825636         0.405362
 H        -1.274507         2.940249         2.199098
