19
Iteration:  3285
 O         1.739788         2.711262         1.868138
 C         0.667018         1.845971         1.853427
 C         0.490652         1.076828         3.171079
 C        -0.412872         0.103579         2.357504
 C        -1.384838         0.932316         1.435539
 C        -0.440984         0.351477        -0.036256
 C         0.505663         0.383961         1.062837
 O         1.840618        -0.204378         0.778838
 C        -0.771757         2.257540         1.427424
 H         1.802200         3.111685         0.988471
 H         1.379815         0.520574         3.508472
 H        -0.041264         1.744569         4.030418
 H        -0.726856        -0.837050         2.858159
 H        -2.478012         0.816494         1.507575
 H        -0.642639        -0.700489        -0.239174
 H        -0.412107         1.090617        -0.813417
 H         2.382743         0.518713         0.373523
 H        -0.557617         2.760668         0.482645
 H        -1.243792         2.827813         2.215522
