19
Iteration:  4962charge 0 multiplicity 1
 O         1.690867         2.710891         1.661062
 C         0.589433         1.862632         1.747407
 C         0.401756         1.200236         3.109412
 C        -0.311145         0.062401         2.324242
 C        -1.363367         0.824657         1.347959
 C        -0.523744         0.326951         0.123571
 C         0.640669         0.415004         1.059589
 O         1.904072        -0.216093         0.994388
 C        -0.800636         2.330488         1.421343
 H         2.197125         2.230739         2.357703
 H         1.302992         0.819023         3.370962
 H        -0.166990         1.795911         3.753712
 H        -0.540778        -0.830270         2.759078
 H        -2.419533         0.654987         1.561056
 H        -0.634616        -0.753548         0.038043
 H        -0.708432         0.803508        -0.963565
 H         2.507919         0.625968         0.924007
 H        -0.776103         2.842918         0.458209
 H        -1.292471         3.013775         2.163262
