19
Iteration:  3110charge 0 multiplicity 1
 O         1.734998         2.732696         1.629254
 C         0.647859         1.806833         1.860435
 C         0.377601         1.038234         3.274760
 C        -0.481153         0.081235         2.363841
 C        -1.316277         0.922439         1.292277
 C        -0.492906         0.408219         0.071889
 C         0.634318         0.426097         1.139681
 O         1.924772        -0.236495         0.739055
 C        -0.768655         2.272262         1.608455
 H         1.628688         3.151613         0.767994
 H         1.255579         0.513611         3.640780
 H        -0.061057         1.681106         4.075387
 H        -0.932060        -0.859871         2.675574
 H        -2.462034         0.780571         1.167122
 H        -0.517961        -0.652916        -0.320173
 H        -0.457506         1.181370        -0.818378
 H         2.563833         0.445482         0.931356
 H        -0.858559         2.992052         0.703079
 H        -1.335485         2.746689         2.463942
