19
Iteration:  3509charge 0 multiplicity 1
 O         1.628488         2.702425         1.713665
 C         0.592800         1.855632         1.845492
 C         0.480755         1.051643         3.121878
 C        -0.305319         0.061804         2.311092
 C        -1.309476         0.895262         1.328359
 C        -0.423119         0.578791         0.099186
 C         0.646937         0.463116         1.085010
 O         1.771682        -0.367310         0.896571
 C        -0.794668         2.303298         1.555731
 H         1.777288         3.050170         0.822955
 H         1.601465         0.685611         3.377071
 H         0.212721         1.437481         4.150516
 H        -0.635817        -0.969535         2.468142
 H        -2.456778         0.572463         1.223933
 H        -0.643754        -0.435671        -0.243659
 H        -0.323341         1.260146        -0.709047
 H         2.360522         0.202990         0.447661
 H        -1.074772         2.868892         0.646346
 H        -1.294714         2.834760         2.415443
