19
Iteration:  4352charge 0 multiplicity 1
 O         1.711195         2.824561         1.716138
 C         0.599392         1.932694         1.807924
 C         0.449754         1.068146         3.186243
 C        -0.236525         0.092089         2.320165
 C        -1.355746         0.913485         1.308506
 C        -0.506246         0.252465         0.149030
 C         0.630791         0.422186         1.084761
 O         1.776760        -0.369963         0.902867
 C        -0.815067         2.379945         1.324224
 H         1.430156         3.363542         2.463821
 H         1.481216         0.826522         3.364813
 H        -0.023894         1.289865         4.164877
 H        -0.338780        -0.950248         2.408070
 H        -2.380861         0.773459         1.345395
 H        -0.655237        -0.814961         0.196359
 H        -0.618340         0.840895        -0.707735
 H         2.667746         0.129126         0.753733
 H        -0.722427         2.895406         0.394063
 H        -1.261739         3.027078         2.053587
