19
Iteration:  1240charge 0 multiplicity 1
 O         1.826930         2.729345         1.909776
 C         0.654140         1.830512         1.866781
 C         0.341799         0.913189         3.139013
 C        -0.312033         0.032608         2.190286
 C        -1.361299         0.935040         1.377363
 C        -0.673252         0.307785         0.127495
 C         0.625453         0.491070         0.971370
 O         1.890305        -0.138103         0.659652
 C        -0.706642         2.340224         1.577727
 H         1.721793         3.453051         2.542105
 H         1.198092         0.682727         3.842108
 H        -0.282407         1.484786         3.885826
 H        -0.586437        -1.026974         2.244743
 H        -2.453087         0.865863         1.728569
 H        -0.978657        -0.776650         0.237500
 H        -0.658810         0.772858        -0.886695
 H         2.266509         0.431584        -0.083934
 H        -0.670886         2.855309         0.606635
 H        -1.256087         2.978442         2.282707
