19
Iteration:  3886
 O         1.638640         2.883937         1.758764
 C         0.622188         1.777381         1.768966
 C         0.443000         1.054464         3.132646
 C        -0.245442         0.002272         2.328303
 C        -1.333861         0.930629         1.334191
 C        -0.600278         0.380827         0.051416
 C         0.565302         0.326179         1.078732
 O         1.868620        -0.283505         0.924812
 C        -0.734601         2.397662         1.436536
 H         2.358302         2.495606         2.258212
 H         1.392620         0.683738         3.533920
 H        -0.067245         1.779144         3.849449
 H        -0.593991        -1.039599         2.720488
 H        -2.424999         0.727971         1.357670
 H        -0.929570        -0.627766        -0.217911
 H        -0.415685         1.155645        -0.690840
 H         2.360599         0.345874         0.442466
 H        -0.743976         2.940685         0.456421
 H        -1.068302         2.887598         2.298695
