19
Iteration:   373
 O         1.813460         2.625699         1.860342
 C         0.639800         1.809926         1.963206
 C         0.373499         0.948316         3.185937
 C        -0.320226         0.015466         2.203166
 C        -1.413562         0.808801         1.316432
 C        -0.572883         0.478921         0.041556
 C         0.597589         0.556231         0.985628
 O         1.852323         0.055803         0.630254
 C        -0.765665         2.313620         1.637815
 H         2.591549         2.059553         1.840815
 H         1.264959         0.364659         3.539755
 H        -0.127854         1.389445         4.050573
 H        -0.444320        -0.967199         2.399452
 H        -2.535424         0.791290         1.477669
 H        -0.669982        -0.568898        -0.350488
 H        -0.610966         1.029005        -0.968168
 H         2.140266        -0.520672         1.344869
 H        -0.961909         2.985988         0.754531
 H        -1.176697         2.761628         2.564470
