19
Iteration:  2166
 O         1.724959         2.565683         1.954784
 C         0.616573         1.842553         1.831344
 C         0.382598         1.036919         3.175344
 C        -0.281776         0.014299         2.358350
 C        -1.344303         0.935515         1.399838
 C        -0.593948         0.373535         0.095908
 C         0.620077         0.403374         1.088547
 O         1.872488        -0.021403         0.633579
 C        -0.749712         2.302507         1.339789
 H         1.910988         3.195281         1.227981
 H         1.279297         0.656068         3.615888
 H        -0.267325         1.580947         3.865507
 H        -0.640582        -0.994911         2.784814
 H        -2.411858         0.750648         1.636211
 H        -0.982355        -0.514124        -0.299571
 H        -0.404177         1.039331        -0.752283
 H         2.539592         0.403521         1.131080
 H        -0.684546         2.660887         0.313729
 H        -1.106861         2.994396         2.109909
