19
Iteration:  4627
 O         1.668208         2.845803         1.599610
 C         0.657429         1.869061         1.827323
 C         0.436911         1.122072         3.198852
 C        -0.324537         0.120003         2.334844
 C        -1.261870         0.826193         1.300999
 C        -0.484619         0.298505         0.035732
 C         0.562212         0.407208         1.119642
 O         1.768771        -0.243251         1.012257
 C        -0.769839         2.268990         1.415706
 H         2.504076         2.511089         1.995446
 H         1.297972         0.826479         3.782859
 H        -0.102564         1.579674         3.983557
 H        -0.611195        -0.851796         2.651021
 H        -2.386204         0.633894         1.371151
 H        -0.582659        -0.845442        -0.021900
 H        -0.465399         0.916500        -0.885053
 H         2.316772         0.288441         0.461069
 H        -0.871753         2.842447         0.475876
 H        -1.299907         2.906085         2.113739
