19
Iteration:  3512
 O         1.627680         2.713857         1.707655
 C         0.628817         1.874452         1.874361
 C         0.507391         1.034648         3.121915
 C        -0.313818         0.044383         2.318553
 C        -1.300228         0.879861         1.347637
 C        -0.458417         0.588804         0.055354
 C         0.650711         0.450333         1.084887
 O         1.768942        -0.363659         0.923505
 C        -0.824895         2.318902         1.551650
 H         1.761029         3.024929         0.781954
 H         1.477359         0.580012         3.404291
 H         0.223211         1.534290         4.018604
 H        -0.634162        -0.984583         2.420384
 H        -2.398994         0.636757         1.136157
 H        -0.676545        -0.454998        -0.233326
 H        -0.276121         1.271898        -0.771944
 H         2.463540         0.199701         0.372598
 H        -1.081459         2.851716         0.604052
 H        -1.298396         2.824587         2.443800
