19
Iteration:  1559charge 0 multiplicity 1
 O         1.739279         2.625655         1.894504
 C         0.636546         1.819632         1.912816
 C         0.371314         1.000958         3.200531
 C        -0.324563         0.054974         2.247168
 C        -1.376619         0.925270         1.397944
 C        -0.603083         0.374849         0.091090
 C         0.611697         0.417319         1.061612
 O         1.934959        -0.044749         0.610093
 C        -0.741329         2.345675         1.436132
 H         1.973475         2.894743         2.798827
 H         1.342010         0.781290         3.577873
 H        -0.223601         1.500186         3.990270
 H        -0.686207        -0.945700         2.616533
 H        -2.367186         0.938212         1.546475
 H        -0.816256        -0.679698        -0.024979
 H        -0.413849         1.070070        -0.774182
 H         1.856842        -0.666915        -0.080863
 H        -0.670673         2.824109         0.538305
 H        -1.081104         3.117154         2.081442
