19
Iteration:   202charge 0 multiplicity 1
 O         1.860370         2.571036         1.938935
 C         0.629978         1.829423         1.858638
 C         0.361367         1.023813         3.091052
 C        -0.365604         0.087467         2.186824
 C        -1.363945         0.883684         1.298949
 C        -0.613352         0.417390         0.055631
 C         0.688925         0.477734         1.018276
 O         1.901631        -0.024784         0.711327
 C        -0.806910         2.258285         1.676945
 H         1.862488         2.918126         2.856668
 H         1.273588         0.449775         3.501853
 H        -0.221306         1.636478         3.841713
 H        -0.577451        -1.146787         2.128734
 H        -2.478060         0.667437         1.428473
 H        -0.893660        -0.693539        -0.072738
 H        -0.641728         0.971093        -0.883359
 H         2.042819         0.392700        -0.227750
 H        -0.854304         2.994053         0.835866
 H        -1.473624         2.728081         2.466299
