19
Iteration:  1033
 O         1.732599         2.631468         1.665094
 C         0.629144         1.818786         1.949754
 C         0.543272         0.866312         3.086361
 C        -0.428355         0.022957         2.163344
 C        -1.343170         0.973705         1.286236
 C        -0.516732         0.590189         0.007607
 C         0.587182         0.461555         1.047733
 O         1.873437        -0.133794         0.863482
 C        -0.853611         2.278863         1.767846
 H         1.538807         3.025866         0.791007
 H         1.415945         0.314497         3.297187
 H         0.361868         1.207641         4.051160
 H        -0.639881        -1.006937         2.378540
 H        -2.350513         0.855203         1.346860
 H        -0.637332        -0.403200        -0.425197
 H        -0.472156         1.343534        -0.758942
 H         2.374585         0.192590         1.738640
 H        -0.962949         3.153315         1.153321
 H        -1.153874         2.594040         2.774265
