19
Iteration:   199
 O         1.849062         2.573803         1.944251
 C         0.655214         1.801901         1.843349
 C         0.385288         1.009027         3.107856
 C        -0.385123         0.099689         2.187101
 C        -1.359546         0.884314         1.306168
 C        -0.612047         0.397746         0.058840
 C         0.676399         0.506914         1.026604
 O         1.885375        -0.011108         0.710181
 C        -0.827701         2.247658         1.645782
 H         1.940374         2.780282         2.914421
 H         1.219526         0.492587         3.496224
 H        -0.124325         1.583508         3.849623
 H        -0.519825        -1.001725         2.198363
 H        -2.359499         0.686481         1.383170
 H        -0.884211        -0.585233        -0.109528
 H        -0.576151         1.017452        -0.837885
 H         2.046107         0.402552        -0.158840
 H        -0.930026         2.943610         0.805034
 H        -1.359824         2.700876         2.395475
