19
Iteration:  1102
 O         1.815250         2.668696         2.191199
 C         0.697327         1.858119         1.833132
 C         0.420508         1.061287         3.113097
 C        -0.242755         0.070518         2.184924
 C        -1.335455         0.863618         1.350344
 C        -0.676882         0.294124         0.095023
 C         0.623428         0.515700         0.968221
 O         1.753965        -0.200045         0.603923
 C        -0.742260         2.346138         1.493906
 H         1.780851         3.403157         1.540671
 H         1.432497         0.787219         3.542583
 H         0.039232         1.429648         4.008956
 H        -0.609612        -1.027154         2.637080
 H        -2.488501         1.038699         1.387790
 H        -0.823655        -0.813289        -0.039534
 H        -0.823896         0.841482        -0.815542
 H         2.413983         0.411416         0.199465
 H        -1.002689         2.861802         0.563105
 H        -1.362780         2.838380         2.311368
