19
Iteration:   848
 O         1.810795         2.608908         1.804011
 C         0.626051         1.824958         1.897408
 C         0.411715         0.892611         3.175591
 C        -0.356012         0.018311         2.142435
 C        -1.394834         0.905043         1.434793
 C        -0.550810         0.515072         0.073850
 C         0.609192         0.447444         1.011597
 O         1.890797        -0.029852         0.852035
 C        -0.787801         2.331904         1.583770
 H         1.833860         2.926042         0.879064
 H         1.383197         0.594351         3.519281
 H        -0.159583         1.160758         4.033871
 H        -0.474615        -1.041541         2.263958
 H        -2.472663         0.752710         1.449894
 H        -0.991027        -0.419183        -0.189746
 H        -0.523789         1.178082        -0.719178
 H         2.195620        -0.066271        -0.049610
 H        -0.868555         2.868371         0.667413
 H        -1.247040         2.949222         2.342606
