19
Iteration:  4796
 O         1.732427         2.655828         1.608683
 C         0.624085         1.883279         1.903223
 C         0.343189         1.222440         3.204142
 C        -0.325415         0.142783         2.303895
 C        -1.346801         0.871514         1.249204
 C        -0.512185         0.204408         0.111378
 C         0.653708         0.399023         1.151553
 O         1.873161        -0.201298         0.827371
 C        -0.792286         2.299515         1.460279
 H         1.677350         3.555731         1.998331
 H         1.306998         0.875593         3.621598
 H        -0.221559         1.777976         3.936363
 H        -0.713432        -0.940706         2.665526
 H        -2.468031         0.707877         1.503752
 H        -0.621757        -0.864760         0.082365
 H        -0.386187         0.840839        -0.801510
 H         2.659258         0.247629         1.073017
 H        -0.781967         2.813067         0.500614
 H        -1.285590         2.821877         2.344156
