19
Iteration:  2441charge 0 multiplicity 1
 O         1.688549         2.887804         1.961482
 C         0.696049         1.901393         1.863035
 C         0.543327         1.122190         3.099052
 C        -0.351771         0.150881         2.240362
 C        -1.325676         0.877511         1.282308
 C        -0.598714         0.255403         0.003506
 C         0.643787         0.333928         0.955989
 O         1.819846        -0.425337         0.862613
 C        -0.815465         2.354978         1.552455
 H         1.319661         3.577287         1.375490
 H         1.525551         0.654205         3.344615
 H         0.142475         1.770652         3.853404
 H        -0.653692        -0.887192         2.670705
 H        -2.402103         0.737550         1.389992
 H        -0.999653        -0.757414        -0.154160
 H        -0.394837         0.859728        -0.888514
 H         2.517824         0.290665         0.580727
 H        -0.911722         3.056878         0.726837
 H        -1.190190         2.724685         2.476752
