19
Iteration:  4781
 O         1.807780         2.624424         1.515692
 C         0.575054         1.921997         1.825482
 C         0.388658         1.110688         3.277415
 C        -0.336798         0.133610         2.313468
 C        -1.328399         0.833548         1.294263
 C        -0.465477         0.258677         0.159799
 C         0.613356         0.428217         1.137854
 O         1.878549        -0.142918         0.915418
 C        -0.902014         2.345946         1.408782
 H         2.074668         3.140891         2.295019
 H         1.337399         0.581787         3.563228
 H        -0.197283         1.533164         4.083242
 H        -0.529816        -0.889669         2.585870
 H        -2.336194         0.629114         1.198835
 H        -0.909623        -0.777848        -0.078293
 H        -0.478701         0.652634        -0.895671
 H         2.471556         0.567751         1.255027
 H        -0.909462         2.959030         0.480271
 H        -1.448495         2.894236         2.117301
