19
Iteration:  2989
 O         1.706332         2.753273         1.760922
 C         0.699545         1.804031         1.869506
 C         0.405848         1.087316         3.170316
 C        -0.316310         0.070629         2.376015
 C        -1.351826         0.859020         1.312040
 C        -0.509862         0.488430         0.015632
 C         0.649899         0.384741         1.031656
 O         1.782073        -0.272580         0.771602
 C        -0.762706         2.290927         1.597899
 H         1.447598         3.189799         0.918968
 H         1.326518         0.555375         3.321858
 H        -0.004405         1.668141         3.999778
 H        -0.569033        -0.912244         2.638902
 H        -2.476889         0.747754         1.185370
 H        -0.723994        -0.567681        -0.388883
 H        -0.531341         1.297199        -0.811375
 H         2.375649         0.003218         1.592042
 H        -0.767986         2.900888         0.645314
 H        -1.080192         2.988631         2.417347
