19
Iteration:   726
 O         1.795235         2.636775         1.756429
 C         0.636254         1.831088         1.895029
 C         0.511902         0.943036         3.088570
 C        -0.334949         0.060473         2.154714
 C        -1.338415         0.930349         1.326121
 C        -0.574676         0.541989         0.012835
 C         0.633765         0.455509         0.954559
 O         1.876635        -0.157667         0.935409
 C        -0.927127         2.319082         1.794962
 H         1.704337         2.794250         0.808807
 H         1.410165         0.475960         3.409640
 H        -0.161709         1.316747         3.907789
 H        -0.568755        -1.057553         2.391751
 H        -2.469119         0.758239         1.384189
 H        -0.806063        -0.514262        -0.214563
 H        -0.628525         1.123751        -0.882536
 H         2.317265         0.103157         0.109970
 H        -1.033531         3.062996         1.013835
 H        -1.203757         2.683870         2.804622
