19
Iteration:   553
 O         1.788565         2.531353         1.655498
 C         0.585019         1.804386         1.866966
 C         0.433643         0.939071         3.189864
 C        -0.257549         0.028304         2.173682
 C        -1.370440         0.873778         1.389918
 C        -0.570091         0.674697         0.008525
 C         0.597398         0.462059         1.050571
 O         1.837306        -0.099907         0.816001
 C        -0.775036         2.232552         1.698816
 H         1.634377         3.502837         1.766495
 H         1.270794         0.397803         3.636022
 H        -0.233259         1.430458         3.978600
 H        -0.501627        -1.118143         2.499619
 H        -2.335621         0.608266         1.437850
 H        -0.806893        -0.276280        -0.596731
 H        -0.453379         1.584674        -0.699754
 H         2.474090         0.567079         0.896037
 H        -0.957472         2.903891         0.914674
 H        -1.231774         2.697672         2.592311
