19
Iteration:  4565
 O         1.776453         2.680439         1.504622
 C         0.656513         1.861156         1.863822
 C         0.416324         1.096708         3.189773
 C        -0.412268         0.109320         2.323385
 C        -1.353775         0.816127         1.259018
 C        -0.500418         0.274974         0.131542
 C         0.553630         0.430798         1.164922
 O         1.823797        -0.099566         0.988487
 C        -0.779699         2.316049         1.427789
 H         2.465030         2.750709         2.195290
 H         1.339477         0.526199         3.486402
 H        -0.159155         1.605458         3.998407
 H        -0.389309        -0.952860         2.612624
 H        -2.381261         0.725836         1.316895
 H        -0.593697        -0.751424         0.015180
 H        -0.444199         0.856190        -0.781249
 H         2.290799         0.747988         0.836506
 H        -0.800422         2.808722         0.416387
 H        -1.314964         2.916914         2.201231
