19
Iteration:  4586
 O         1.714602         2.591210         1.457384
 C         0.573699         1.793979         1.791488
 C         0.340640         1.150948         3.239114
 C        -0.370069         0.084165         2.336690
 C        -1.362053         0.903318         1.321676
 C        -0.536728         0.331850         0.054364
 C         0.663050         0.366246         1.129789
 O         1.984708        -0.066038         1.033803
 C        -0.778318         2.316040         1.498526
 H         2.399094         2.446147         2.137397
 H         1.265338         0.737331         3.759463
 H        -0.376851         1.754165         3.873393
 H        -0.829771        -0.859899         2.686472
 H        -2.393622         0.743198         1.453440
 H        -0.852569        -0.616966        -0.150395
 H        -0.510521         0.979252        -0.854775
 H         2.436588         0.652837         0.442614
 H        -0.855176         2.907849         0.524254
 H        -1.245797         2.880463         2.320508
