19
Iteration:  1815
 O         1.687218         2.873491         1.814383
 C         0.637258         1.824901         1.853002
 C         0.492915         0.936156         3.114740
 C        -0.417953         0.047032         2.267285
 C        -1.297068         0.931078         1.308438
 C        -0.476397         0.437872        -0.004521
 C         0.631551         0.416098         1.080842
 O         1.853870        -0.169834         0.790284
 C        -0.800288         2.300411         1.692215
 H         2.053462         2.664719         0.928024
 H         1.415820         0.342815         3.402379
 H         0.017845         1.419724         4.004641
 H        -0.718639        -0.995565         2.416589
 H        -2.471586         0.842434         1.381417
 H        -0.711171        -0.666892        -0.349877
 H        -0.502774         1.173593        -0.914143
 H         1.699194        -1.095724         0.491186
 H        -1.002274         3.131779         0.999320
 H        -1.089096         2.605867         2.742296
