19
Iteration:  4421
 O         1.755688         2.527953         1.416317
 C         0.550791         1.891122         1.886331
 C         0.356324         1.033919         3.254839
 C        -0.290818         0.119544         2.300673
 C        -1.292837         0.864221         1.288775
 C        -0.474358         0.312934         0.097178
 C         0.604779         0.391249         1.117590
 O         1.849374        -0.068220         1.013430
 C        -0.834058         2.384713         1.475909
 H         1.834329         3.319830         1.967350
 H         1.394561         0.696836         3.577736
 H        -0.088350         1.449898         4.200517
 H        -0.707611        -0.861322         2.451490
 H        -2.390165         0.508042         1.458383
 H        -0.658215        -0.697785        -0.125886
 H        -0.287654         1.051716        -0.685961
 H         2.621113         0.508963         1.028985
 H        -1.014619         2.959525         0.485326
 H        -1.238345         3.117848         2.218090
