19
Iteration:  1644
 O         1.688222         2.744921         1.759960
 C         0.681462         1.754365         1.883074
 C         0.579888         0.901677         3.103084
 C        -0.446190         0.018675         2.146506
 C        -1.366425         0.905729         1.348732
 C        -0.525355         0.624754         0.035164
 C         0.598140         0.457460         1.028865
 O         1.844379        -0.125572         0.971622
 C        -0.781524         2.265132         1.656331
 H         1.579296         3.091612         0.859854
 H         1.489061         0.314498         3.149901
 H         0.392204         1.474005         4.041160
 H        -0.570448        -1.070819         2.227316
 H        -2.516334         0.675797         1.308059
 H        -0.761693        -0.263159        -0.567571
 H        -0.374346         1.465845        -0.653820
 H         1.901842        -1.118981         0.669163
 H        -0.766842         3.048372         0.764232
 H        -1.189500         2.735783         2.602647
