19
Iteration:  4225
 O         1.756604         2.770858         1.673135
 C         0.612759         1.833655         1.908365
 C         0.391295         1.135222         3.310522
 C        -0.315665         0.176119         2.279392
 C        -1.332304         0.844112         1.281178
 C        -0.545701         0.305421         0.148880
 C         0.666679         0.479228         1.043315
 O         1.797052        -0.305658         0.785858
 C        -0.780434         2.243403         1.399635
 H         1.637843         3.319888         2.490187
 H         1.327809         0.869049         3.833395
 H        -0.276748         1.707046         3.864176
 H        -0.500023        -0.803078         2.548806
 H        -2.428483         0.890317         1.233903
 H        -0.624343        -0.718207         0.006940
 H        -0.616070         0.686110        -0.867452
 H         2.707088         0.087177         1.029174
 H        -0.573816         2.816243         0.436625
 H        -1.287469         2.880339         2.131930
