19
Iteration:   908charge 0 multiplicity 1
 O         1.655930         2.747018         1.725453
 C         0.622203         1.877312         1.926749
 C         0.489512         0.896934         3.150162
 C        -0.319277         0.002123         2.241194
 C        -1.302531         0.851361         1.355184
 C        -0.480888         0.638394         0.021847
 C         0.623551         0.442859         0.997564
 O         1.803539        -0.189349         0.732596
 C        -0.796662         2.335208         1.656674
 H         2.324087         2.467592         2.387663
 H         1.538097         0.510281         3.293317
 H        -0.099416         1.278221         4.069434
 H        -0.385550        -1.115189         2.467498
 H        -2.448073         0.615390         1.282823
 H        -0.826589        -0.267092        -0.583058
 H        -0.619401         1.484316        -0.792047
 H         1.984158        -0.913841         1.434906
 H        -0.884194         3.168933         0.873994
 H        -1.381919         2.716406         2.549276
