19
Iteration:  1887
 O         1.839016         2.547724         1.895044
 C         0.645326         1.826128         1.832052
 C         0.358796         1.098948         3.260489
 C        -0.388896         0.001017         2.343717
 C        -1.363841         0.866103         1.254307
 C        -0.605086         0.361593         0.051876
 C         0.631993         0.471091         1.056525
 O         1.938184         0.082821         0.641520
 C        -0.791807         2.292073         1.594180
 H         2.027101         2.975667         1.032213
 H         1.389213         0.917441         3.662608
 H        -0.195105         1.710938         3.934504
 H        -0.799144        -1.017202         2.694398
 H        -2.431783         0.689945         1.293665
 H        -0.812710        -0.690912        -0.197321
 H        -0.522432         0.961092        -0.839578
 H         1.791424        -0.826784         0.420590
 H        -0.731036         2.984442         0.737729
 H        -1.394041         2.599771         2.477103
