19
Iteration:  2709
 O         1.716095         2.593547         1.608751
 C         0.614184         1.836371         1.845140
 C         0.336567         1.084759         3.228556
 C        -0.271009         0.004673         2.245755
 C        -1.355683         0.892764         1.324151
 C        -0.557749         0.448111         0.041287
 C         0.572258         0.434474         1.072496
 O         1.968126         0.008850         0.909128
 C        -0.794947         2.332583         1.589773
 H         2.424871         1.894546         1.622194
 H         1.278220         0.847993         3.690768
 H        -0.420822         1.468437         3.952784
 H        -0.507094        -1.103333         2.440228
 H        -2.478452         0.783789         1.240284
 H        -0.822641        -0.584822        -0.279155
 H        -0.590695         1.252900        -0.756579
 H         2.352337        -0.917425         1.068300
 H        -0.864972         2.842233         0.635795
 H        -1.254215         2.875293         2.445860
