19
Iteration:  3457charge 0 multiplicity 1
 O         1.770175         2.642520         1.817957
 C         0.697608         1.803396         1.858576
 C         0.381543         1.046809         3.137733
 C        -0.322987         0.071421         2.258795
 C        -1.409253         0.935019         1.375554
 C        -0.688303         0.221725         0.164068
 C         0.625989         0.440981         1.131307
 O         1.889887        -0.087531         0.716000
 C        -0.654835         2.382963         1.408314
 H         1.517955         3.465969         1.355379
 H         1.159549         0.465173         3.617553
 H        -0.130483         1.605086         3.849070
 H        -0.596847        -0.968828         2.439662
 H        -2.554044         0.843120         1.604902
 H        -0.864789        -0.844803        -0.139848
 H        -0.678379         0.777033        -0.805288
 H         2.589441         0.287764         1.342318
 H        -0.829695         3.000383         0.488723
 H        -1.139150         3.047270         2.205456
