19
Iteration:  4859charge 0 multiplicity 1
 O         1.682354         2.809275         1.789033
 C         0.658241         1.868727         1.754237
 C         0.436522         1.132787         3.132543
 C        -0.274222         0.162888         2.264274
 C        -1.343156         0.877471         1.261084
 C        -0.544064         0.219732         0.123377
 C         0.699208         0.510221         1.159682
 O         1.804820        -0.312749         0.899408
 C        -0.863585         2.306108         1.475345
 H         2.121166         2.731354         0.921310
 H         1.445050         0.760613         3.545769
 H         0.102236         1.627579         4.041778
 H        -0.783173        -0.856047         2.561763
 H        -2.374846         0.503297         1.372629
 H        -0.810319        -0.909728         0.050201
 H        -0.429095         0.651930        -0.967514
 H         2.547773         0.198413         1.134388
 H        -0.954249         2.904413         0.540732
 H        -1.305169         2.901650         2.256617
