19
Iteration:  2575charge 0 multiplicity 1
 O         1.738784         2.691841         1.543500
 C         0.638967         1.817211         1.817741
 C         0.321057         0.998473         3.237368
 C        -0.360341         0.052314         2.229587
 C        -1.308884         0.915815         1.328082
 C        -0.579921         0.331544         0.138937
 C         0.705364         0.420910         1.038399
 O         1.920086        -0.131899         0.885345
 C        -0.805898         2.352219         1.574781
 H         2.146529         3.216656         2.266742
 H         1.048439         0.335816         3.674897
 H        -0.224954         1.537782         3.996042
 H        -0.691993        -0.863648         2.502351
 H        -2.425397         0.831306         1.459571
 H        -0.886154        -0.729787         0.038399
 H        -0.599625         0.928030        -0.771204
 H         2.445536         0.772051         0.845341
 H        -0.884879         3.065220         0.761379
 H        -1.203625         2.670885         2.488886
