19
Iteration:  3275charge 0 multiplicity 1
 O         1.747822         2.720098         1.815666
 C         0.612535         1.845942         1.866040
 C         0.516156         1.025850         3.111643
 C        -0.420269         0.091155         2.325429
 C        -1.395422         0.922554         1.328288
 C        -0.513670         0.288984         0.065689
 C         0.588332         0.354752         1.097251
 O         1.855855        -0.187437         0.820027
 C        -0.745886         2.338626         1.499359
 H         1.736431         3.354596         1.075504
 H         1.475707         0.551479         3.285326
 H         0.206618         1.504046         4.079390
 H        -0.889361        -0.822888         2.746753
 H        -2.436189         0.846995         1.225660
 H        -0.859903        -0.569868        -0.442003
 H        -0.425254         1.082905        -0.630794
 H         2.398893         0.590875         0.790045
 H        -0.781113         2.847598         0.511308
 H        -1.200402         3.057379         2.186234
