19
Iteration:  4517charge 0 multiplicity 1
 O         1.731503         2.878687         1.686867
 C         0.682026         1.875944         1.778437
 C         0.350103         1.216025         3.151975
 C        -0.278259         0.018146         2.327288
 C        -1.285630         0.866403         1.346788
 C        -0.546479         0.259725         0.080062
 C         0.608543         0.336946         1.072795
 O         1.802858        -0.328051         0.883238
 C        -0.765083         2.286384         1.442614
 H         1.688773         3.391539         2.516657
 H         1.319774         0.984874         3.650274
 H        -0.355285         1.847461         3.736094
 H        -0.707593        -0.866671         2.780292
 H        -2.457542         0.711762         1.393031
 H        -0.886668        -0.880105         0.154784
 H        -0.412803         1.008933        -0.727302
 H         2.539395         0.259536         0.824004
 H        -0.708219         2.810326         0.442393
 H        -1.165100         2.988898         2.215297
