19
Iteration:   780charge 0 multiplicity 1
 O         1.638536         2.816248         1.907475
 C         0.652104         1.795744         1.925532
 C         0.453587         0.887561         3.254342
 C        -0.298562         0.060873         2.217566
 C        -1.314887         0.951803         1.369716
 C        -0.598451         0.483986         0.088895
 C         0.616100         0.428871         1.009981
 O         1.847063        -0.216920         0.571362
 C        -0.678586         2.351496         1.542193
 H         1.422592         3.285687         1.091232
 H         1.326956         0.434425         3.653628
 H        -0.049113         1.280656         4.179825
 H        -0.627056        -1.033187         2.191066
 H        -2.506218         0.749731         1.618780
 H        -0.734962        -0.562614        -0.195989
 H        -0.371662         1.072431        -0.756640
 H         1.999011        -0.957364         1.224570
 H        -0.642940         2.947526         0.580080
 H        -0.975320         3.065688         2.366001
