19
Iteration:  3196
 O         1.689919         2.615127         1.774828
 C         0.573385         1.829893         1.919318
 C         0.459354         1.100447         3.190325
 C        -0.379299         0.115238         2.288343
 C        -1.355954         0.901310         1.335804
 C        -0.488703         0.358235         0.040789
 C         0.596942         0.363887         1.129866
 O         1.911889        -0.209479         0.790438
 C        -0.744397         2.414281         1.520413
 H         1.548340         3.241448         1.036833
 H         1.332408         0.415944         3.213405
 H         0.061949         1.726331         4.086365
 H        -0.586816        -0.902339         2.582671
 H        -2.461475         0.484341         1.359113
 H        -0.800200        -0.674144        -0.267699
 H        -0.493819         0.950242        -0.825743
 H         2.298990         0.626788         0.331874
 H        -0.620325         2.990891         0.565657
 H        -1.256960         3.032666         2.299973
