19
Iteration:  4055charge 0 multiplicity 1
 O         1.670871         2.783225         1.760850
 C         0.585201         1.784086         1.801015
 C         0.466404         1.089038         3.119504
 C        -0.238194         0.094419         2.231662
 C        -1.335744         0.938401         1.348936
 C        -0.522220         0.291804         0.106661
 C         0.588367         0.348753         1.118411
 O         1.815274        -0.284100         0.893150
 C        -0.754230         2.392324         1.416942
 H         1.421913         3.359235         2.498111
 H         1.504948         0.837769         3.423350
 H        -0.057792         1.744342         3.855109
 H        -0.479457        -0.926410         2.677984
 H        -2.453365         0.915890         1.525476
 H        -0.801742        -0.825726        -0.168800
 H        -0.562451         0.884593        -0.812836
 H         2.582325         0.216866         0.627962
 H        -0.643994         2.845660         0.428860
 H        -1.180620         3.077611         2.275785
