19
Iteration:  1814charge 0 multiplicity 1
 O         1.683411         2.871895         1.810311
 C         0.637969         1.826736         1.852756
 C         0.493720         0.932572         3.110644
 C        -0.415648         0.044339         2.265151
 C        -1.302533         0.933300         1.313808
 C        -0.472178         0.446878        -0.009279
 C         0.641968         0.417714         1.083637
 O         1.850415        -0.173594         0.794610
 C        -0.803613         2.300167         1.689442
 H         2.032233         2.638596         0.932387
 H         1.436057         0.346909         3.397880
 H         0.038969         1.401337         3.995766
 H        -0.707065        -1.015326         2.457455
 H        -2.480000         0.849927         1.369454
 H        -0.679111        -0.633836        -0.330451
 H        -0.491117         1.183643        -0.897845
 H         1.683486        -1.130678         0.490667
 H        -1.029505         3.137298         1.014003
 H        -1.113085         2.632685         2.738070
