19
Iteration:  3789charge 0 multiplicity 1
 O         1.747047         2.714442         1.681302
 C         0.616660         1.905406         1.878222
 C         0.339163         1.073570         3.198852
 C        -0.328314         0.051233         2.285598
 C        -1.308742         0.909639         1.304665
 C        -0.530863         0.316215         0.098461
 C         0.642560         0.377804         1.135324
 O         1.805404        -0.110067         0.850758
 C        -0.752495         2.291031         1.461185
 H         2.513095         2.219355         1.963075
 H         1.196039         0.576576         3.690843
 H        -0.113441         1.739816         3.994576
 H        -0.524090        -1.052294         2.565532
 H        -2.387705         0.815242         1.535717
 H        -0.800483        -0.730341         0.047510
 H        -0.364023         0.909408        -0.768231
 H         2.127401         0.251901         0.005881
 H        -0.625442         2.947851         0.492658
 H        -1.414076         2.947608         2.127317
