19
Iteration:  3105
 O         1.710077         2.708203         1.611616
 C         0.684564         1.818088         1.855599
 C         0.340236         0.993895         3.274638
 C        -0.440471         0.104000         2.390760
 C        -1.291194         0.929472         1.290292
 C        -0.508362         0.440029         0.044924
 C         0.614472         0.427831         1.136820
 O         1.921033        -0.205567         0.762640
 C        -0.787836         2.248197         1.583719
 H         1.740382         3.172572         0.741591
 H         1.218099         0.434589         3.687377
 H        -0.156652         1.673220         3.981408
 H        -0.812598        -0.903228         2.636092
 H        -2.335926         0.887207         1.276762
 H        -0.587555        -0.612269        -0.170421
 H        -0.663268         1.007739        -0.812160
 H         2.659382         0.431929         1.002135
 H        -0.698695         2.978921         0.818395
 H        -1.211337         2.733096         2.443227
