19
Iteration:    28
 O         1.832901         2.597031         1.827898
 C         0.661099         1.778533         1.858466
 C         0.443168         0.986680         3.216730
 C        -0.392956         0.002884         2.301058
 C        -1.338949         0.825887         1.364154
 C        -0.551299         0.511390         0.069721
 C         0.590889         0.408954         1.020838
 O         1.834676         0.077508         0.634587
 C        -0.859455         2.295507         1.496113
 H         2.268362         2.435019         2.660158
 H         1.353724         0.405519         3.584296
 H        -0.061143         1.623676         4.005017
 H        -0.682672        -0.999947         2.743326
 H        -2.478645         0.738265         1.350003
 H        -0.862385        -0.458858        -0.434913
 H        -0.576270         1.281448        -0.748850
 H         2.559089         0.299683         1.171300
 H        -0.927774         2.750274         0.466875
 H        -1.317297         2.807401         2.381830
