19
Iteration:  3079
 O         1.796691         2.609527         1.690758
 C         0.605190         1.855759         1.867475
 C         0.411788         1.032599         3.153818
 C        -0.312582        -0.032412         2.203707
 C        -1.355052         0.934413         1.413662
 C        -0.606072         0.340020         0.098372
 C         0.521714         0.450074         1.065356
 O         1.920788        -0.116427         0.894316
 C        -0.788897         2.358109         1.558188
 H         1.809553         3.055175         0.796400
 H         1.396150         0.813876         3.486459
 H        -0.142426         1.619959         3.860920
 H        -0.727003        -1.066828         2.204452
 H        -2.483157         0.797250         1.432817
 H        -0.520140        -0.676869        -0.288473
 H        -0.595517         1.145807        -0.744193
 H         2.517798         0.625970         1.333057
 H        -0.671194         2.763358         0.533031
 H        -1.190704         3.150929         2.219530
