19
Iteration:  4025charge 0 multiplicity 1
 O         1.755153         2.814866         1.600756
 C         0.649999         1.826120         1.867279
 C         0.429921         1.085493         3.217518
 C        -0.359338         0.157701         2.228340
 C        -1.355927         0.832568         1.300065
 C        -0.532779         0.400963         0.034946
 C         0.669068         0.390131         1.102682
 O         1.865555        -0.351802         0.939644
 C        -0.825379         2.286024         1.542107
 H         1.503708         3.596432         2.119876
 H         1.292449         0.588586         3.542205
 H        -0.045027         1.764833         3.974504
 H        -0.600818        -0.936265         2.604400
 H        -2.433975         0.665785         1.394427
 H        -0.828650        -0.639357        -0.154320
 H        -0.583135         1.281268        -0.550482
 H         2.614103         0.164308         0.445715
 H        -0.904545         2.903906         0.618587
 H        -1.461661         2.834014         2.354192
