19
Iteration:  1846
 O         1.740979         2.689372         1.958714
 C         0.616692         1.795755         1.921873
 C         0.407654         0.987703         3.150504
 C        -0.294901         0.012941         2.283595
 C        -1.354675         0.931624         1.358181
 C        -0.670032         0.368764         0.087492
 C         0.620066         0.468690         1.037511
 O         1.954014        -0.003364         0.693820
 C        -0.736645         2.338445         1.447281
 H         2.045010         2.714578         1.029553
 H         1.355444         0.562774         3.625894
 H        -0.258186         1.425332         3.881437
 H        -0.581613        -1.062906         2.460588
 H        -2.512829         0.956988         1.606596
 H        -0.819641        -0.683892        -0.084268
 H        -0.978847         0.787021        -0.893999
 H         1.873519        -0.872972         0.260885
 H        -0.668295         2.756583         0.443001
 H        -1.039713         2.995782         2.316931
