19
Iteration:   821
 O         1.813378         2.615083         2.038042
 C         0.657073         1.812705         1.869222
 C         0.476077         1.066384         3.206153
 C        -0.294150         0.100094         2.235449
 C        -1.370003         0.874928         1.347617
 C        -0.578430         0.368018        -0.013657
 C         0.615691         0.414360         1.043068
 O         1.780725        -0.151656         0.627085
 C        -0.790226         2.324407         1.540238
 H         1.795535         3.413507         1.469475
 H         1.516113         0.814709         3.558508
 H        -0.115777         1.546819         4.069009
 H        -0.595201        -0.936282         2.544199
 H        -2.577728         0.606488         1.459384
 H        -0.912605        -0.663169        -0.359173
 H        -0.795354         1.116390        -0.943178
 H         2.335991         0.552418         0.258922
 H        -0.931272         3.084489         0.659829
 H        -1.227140         2.898135         2.425030
