19
Iteration:  2150
 O         1.716145         2.740164         1.921955
 C         0.658261         1.781057         1.889528
 C         0.401444         1.044156         3.172115
 C        -0.326344         0.066301         2.221532
 C        -1.330316         0.826287         1.366133
 C        -0.576217         0.371122         0.107382
 C         0.609842         0.388302         1.015876
 O         1.830435        -0.182023         0.690821
 C        -0.707348         2.385139         1.474736
 H         1.429276         3.533197         1.437713
 H         1.420276         0.655103         3.502345
 H         0.019804         1.556995         4.067922
 H        -0.651187        -0.931434         2.382774
 H        -2.434402         0.813303         1.384198
 H        -0.697358        -0.766468        -0.081893
 H        -0.732067         1.066420        -0.796246
 H         2.558440         0.260829         1.240470
 H        -0.642708         2.806296         0.444753
 H        -1.181516         3.109931         2.162011
