19
Iteration:   954
 O         1.759710         2.738036         1.989106
 C         0.692720         1.861724         1.927182
 C         0.387447         0.970725         3.180314
 C        -0.370564         0.017782         2.215083
 C        -1.284874         0.950223         1.295026
 C        -0.624645         0.341079         0.127652
 C         0.645122         0.415070         0.986144
 O         1.773928        -0.162077         0.486932
 C        -0.693908         2.321536         1.604332
 H         1.521655         3.487961         2.563034
 H         1.346636         0.498440         3.308559
 H        -0.092761         1.426587         4.095543
 H        -0.774082        -0.892761         2.579829
 H        -2.420452         0.888941         1.440475
 H        -0.837236        -0.738120        -0.045192
 H        -0.411375         0.764812        -0.902382
 H         2.585741         0.276405         0.795874
 H        -0.701333         2.939050         0.647824
 H        -1.184693         2.982056         2.377233
