19
Iteration:   249
 O         1.663749         2.786675         1.812170
 C         0.682161         1.745071         2.035062
 C         0.465473         0.872477         3.166282
 C        -0.409597        -0.061968         2.140726
 C        -1.367840         0.879754         1.310236
 C        -0.505696         0.665830         0.032137
 C         0.651480         0.493461         1.047590
 O         1.785423        -0.225228         0.762083
 C        -0.678904         2.251421         1.626786
 H         1.307130         3.511592         1.293476
 H         1.427775         0.368635         3.376174
 H        -0.000336         1.286660         4.108582
 H        -0.596799        -1.097662         2.397468
 H        -2.477725         0.742510         1.263942
 H        -0.514760        -0.360298        -0.465841
 H        -0.409240         1.517565        -0.672287
 H         2.432839         0.442954         0.557913
 H        -0.695117         2.874538         0.726006
 H        -1.123049         2.959650         2.441274
