19
Iteration:  3085charge 0 multiplicity 1
 O         1.766330         2.640844         1.651769
 C         0.624720         1.790123         1.894138
 C         0.375077         1.043534         3.203303
 C        -0.298725         0.008687         2.162964
 C        -1.358749         0.935968         1.384687
 C        -0.597568         0.360931         0.115899
 C         0.569302         0.459622         1.066612
 O         1.893995        -0.110470         0.880770
 C        -0.712026         2.351150         1.565091
 H         1.573754         2.909831         0.739566
 H         1.337086         0.640362         3.663464
 H        -0.303545         1.587790         3.933395
 H        -0.607666        -1.012579         2.325192
 H        -2.424123         0.685703         1.377675
 H        -0.746454        -0.710532        -0.237883
 H        -0.487960         1.018066        -0.720912
 H         2.418342         0.493324         1.340657
 H        -0.794552         2.850358         0.565530
 H        -1.165050         3.038154         2.298492
