19
Iteration:   454
 O         1.633986         2.797448         1.741862
 C         0.626959         1.806396         1.921631
 C         0.466505         0.924806         3.190392
 C        -0.295783        -0.006667         2.234872
 C        -1.356903         0.861183         1.286155
 C        -0.509301         0.587535         0.032542
 C         0.634551         0.456976         1.026239
 O         1.833269        -0.225573         0.757256
 C        -0.777458         2.330666         1.705713
 H         2.399496         2.623744         2.309525
 H         1.432347         0.496587         3.500751
 H        -0.104212         1.325728         4.077025
 H        -0.553737        -1.169264         2.307249
 H        -2.416176         0.767534         1.372506
 H        -0.578830        -0.436090        -0.376107
 H        -0.467368         1.400748        -0.675537
 H         1.891126        -0.149937        -0.167222
 H        -0.757331         2.977620         0.848278
 H        -1.203620         2.875412         2.561410
