19
Iteration:  3218charge 0 multiplicity 1
 O         1.808903         2.641705         1.647320
 C         0.628262         1.820465         1.858156
 C         0.400034         1.052817         3.234155
 C        -0.340101         0.030123         2.346818
 C        -1.371227         0.911766         1.342422
 C        -0.467930         0.504144         0.097015
 C         0.664763         0.424091         1.096887
 O         1.816923        -0.200441         0.826706
 C        -0.848193         2.248812         1.479204
 H         1.579265         3.438906         1.142240
 H         1.356759         0.652603         3.644058
 H        -0.247275         1.699892         3.928762
 H        -0.713431        -0.945914         2.648746
 H        -2.485214         0.709946         1.165890
 H        -0.783325        -0.450725        -0.362664
 H        -0.486241         1.233066        -0.664438
 H         2.548663         0.428701         0.878005
 H        -0.965942         2.969517         0.666212
 H        -1.213389         2.676061         2.428820
