19
Iteration:   663
 O         1.808152         2.611044         1.950082
 C         0.646049         1.801868         1.926953
 C         0.372197         1.033461         3.212035
 C        -0.309943         0.116853         2.319752
 C        -1.334093         0.931060         1.336865
 C        -0.575971         0.322888         0.103045
 C         0.596084         0.439960         1.033236
 O         1.833052        -0.087257         0.436395
 C        -0.751076         2.351086         1.555271
 H         1.479377         3.511972         1.809100
 H         1.253947         0.700868         3.751059
 H        -0.344090         1.554338         3.913882
 H        -0.511424        -1.000059         2.421840
 H        -2.308956         0.864719         1.276530
 H        -0.664386        -0.807984        -0.002383
 H        -0.546120         0.929557        -0.875784
 H         2.536051        -0.337948         1.071986
 H        -1.000444         2.888180         0.684059
 H        -1.281743         2.739420         2.427758
