19
Iteration:   826charge 0 multiplicity 1
 O         1.796324         2.557664         2.002134
 C         0.663383         1.842297         1.873601
 C         0.450188         1.039247         3.171145
 C        -0.255775         0.050027         2.259194
 C        -1.377552         0.890201         1.340951
 C        -0.607021         0.413498        -0.013873
 C         0.634187         0.461858         1.068955
 O         1.812962        -0.137287         0.682046
 C        -0.824469         2.334924         1.531469
 H         1.822701         3.292594         1.363522
 H         1.428596         0.729366         3.478780
 H         0.080087         1.568869         4.027466
 H        -0.666024        -0.913701         2.536211
 H        -2.450951         0.636804         1.415314
 H        -0.784506        -0.591874        -0.345576
 H        -0.855844         1.094041        -0.725514
 H         2.211589         0.566030         0.040924
 H        -0.874416         2.973308         0.671115
 H        -1.265356         2.913505         2.337392
