19
Iteration:   914
 O         1.695949         2.756919         1.769363
 C         0.596465         1.846879         1.955271
 C         0.454899         0.947391         3.146048
 C        -0.238367         0.000704         2.200817
 C        -1.310093         0.869352         1.351592
 C        -0.534974         0.610726         0.005440
 C         0.614531         0.457724         1.009799
 O         1.795971        -0.206863         0.704870
 C        -0.793753         2.287873         1.633236
 H         2.314489         2.734338         2.522886
 H         1.438363         0.542474         3.380903
 H         0.004727         1.266555         4.034449
 H        -0.505080        -1.020494         2.365539
 H        -2.313125         0.681013         1.299324
 H        -0.930364        -0.241956        -0.482952
 H        -0.674806         1.424049        -0.610551
 H         1.981891        -0.772726         1.502708
 H        -0.897714         2.903975         0.783364
 H        -1.169829         2.829146         2.493329
