19
Iteration:  2124
 O         1.706221         2.919093         1.794176
 C         0.682937         1.837002         1.891164
 C         0.470182         0.919892         3.170301
 C        -0.314654         0.172634         2.194173
 C        -1.317516         0.913806         1.209433
 C        -0.472993         0.381495         0.017146
 C         0.642411         0.423302         1.014424
 O         1.750928        -0.414140         0.829840
 C        -0.820385         2.341019         1.686392
 H         1.287016         3.688066         1.365185
 H         1.494797         0.544066         3.577000
 H        -0.174920         1.240199         4.051372
 H        -0.578033        -0.944536         2.371751
 H        -2.369099         0.786181         1.343925
 H        -0.731686        -0.664624        -0.186340
 H        -0.460772         1.023788        -0.803766
 H         2.658388         0.086531         0.846603
 H        -1.095939         3.256737         1.048854
 H        -1.197766         2.421239         2.716904
