19
Iteration:  2635charge 0 multiplicity 1
 O         1.589583         2.972987         1.876022
 C         0.676372         1.826296         1.854374
 C         0.408597         1.066748         3.122987
 C        -0.264580         0.087833         2.181038
 C        -1.371185         0.891311         1.364355
 C        -0.567787         0.341447         0.074490
 C         0.664453         0.411933         1.042053
 O         1.892792        -0.370368         0.886114
 C        -0.764697         2.338899         1.488621
 H         2.442876         2.639386         1.533860
 H         1.297710         0.472042         3.407732
 H         0.019196         1.661237         3.971879
 H        -0.334712        -1.035975         2.510849
 H        -2.362556         1.067421         1.589705
 H        -0.919162        -0.710566        -0.048457
 H        -0.615834         0.802506        -0.964350
 H         2.108850        -0.605884         0.021734
 H        -0.873508         2.867443         0.525582
 H        -1.273010         3.023892         2.247266
