19
Iteration:  1568charge 0 multiplicity 1
 O         1.749102         2.610454         1.879752
 C         0.602164         1.825401         1.925211
 C         0.439975         1.061207         3.266751
 C        -0.364332         0.017944         2.306629
 C        -1.333922         0.960616         1.312390
 C        -0.579320         0.397138         0.111323
 C         0.634677         0.372086         1.102096
 O         1.921447        -0.014768         0.568518
 C        -0.741035         2.337180         1.442333
 H         1.815818         3.072561         2.736234
 H         1.354725         0.532136         3.559168
 H        -0.092894         1.427168         4.149281
 H        -0.991343        -0.893383         2.457095
 H        -2.400996         0.735609         1.337082
 H        -0.854399        -0.577367        -0.333150
 H        -0.630194         1.029863        -0.804393
 H         1.710744        -0.770833         0.073348
 H        -0.624098         2.684658         0.433158
 H        -1.319211         2.966474         2.132762
