19
Iteration:  4631charge 0 multiplicity 1
 O         1.654522         2.861854         1.613320
 C         0.677712         1.879262         1.868092
 C         0.438215         1.140204         3.181157
 C        -0.292980         0.112872         2.337417
 C        -1.277418         0.840357         1.314810
 C        -0.498693         0.264107         0.022482
 C         0.557111         0.431706         1.120407
 O         1.742403        -0.268476         1.016962
 C        -0.749020         2.271316         1.412255
 H         2.502605         2.638106         2.030991
 H         1.366587         0.628695         3.665909
 H        -0.144517         1.767003         3.926113
 H        -0.591918        -0.931913         2.613728
 H        -2.255715         0.548500         1.135118
 H        -0.595494        -0.742758        -0.053039
 H        -0.447446         0.818999        -0.891635
 H         2.264595         0.292936         0.330077
 H        -0.761472         2.792516         0.419708
 H        -1.369878         2.809739         2.178167
