19
Iteration:  2423
 O         1.679001         2.813006         1.773555
 C         0.669129         1.845738         1.816301
 C         0.357581         1.038456         3.183692
 C        -0.265846         0.061849         2.203175
 C        -1.349244         0.937461         1.295845
 C        -0.571403         0.394599         0.112138
 C         0.678612         0.447471         1.061549
 O         1.848934        -0.343401         0.881995
 C        -0.724604         2.300455         1.576453
 H         1.661096         3.446614         1.038730
 H         1.220923         0.517551         3.617924
 H        -0.302409         1.566919         3.909767
 H        -0.530331        -0.912973         2.344694
 H        -2.467846         0.811179         1.349394
 H        -0.721166        -0.737227         0.079580
 H        -0.759445         0.854126        -0.955279
 H         2.599717         0.234667         0.465071
 H        -0.903362         3.007664         0.721586
 H        -1.186065         2.770785         2.471563
