19
Iteration:  4708
 O         1.637891         2.856720         1.607250
 C         0.653477         1.849978         1.847810
 C         0.369544         1.162472         3.230194
 C        -0.387914         0.179198         2.299373
 C        -1.289551         0.847936         1.282203
 C        -0.486092         0.283956         0.158614
 C         0.712501         0.471551         1.118803
 O         1.800198        -0.319038         0.963302
 C        -0.809502         2.288684         1.422760
 H         2.516423         2.445906         1.789667
 H         1.279312         0.549150         3.416142
 H        -0.086843         1.794885         3.968196
 H        -0.254307        -0.975274         2.561033
 H        -2.323487         0.424282         1.295780
 H        -0.503901        -0.738806        -0.034288
 H        -0.363028         0.785039        -0.829845
 H         2.417432        -0.028906         0.289306
 H        -0.888292         2.672593         0.386337
 H        -1.377561         2.861703         2.231944
