19
Iteration:  1542
 O         1.783938         2.730685         1.873688
 C         0.684371         1.822035         1.825147
 C         0.318173         1.055155         3.143874
 C        -0.307113        -0.002300         2.184442
 C        -1.315312         0.879896         1.387192
 C        -0.640792         0.374694         0.113005
 C         0.643740         0.496913         0.984237
 O         1.849858        -0.086171         0.767952
 C        -0.686719         2.352151         1.551065
 H         2.301602         2.451420         2.656150
 H         1.044467         0.461573         3.753453
 H        -0.401794         1.511648         3.842399
 H        -0.466052        -1.067316         2.287730
 H        -2.469718         0.595077         1.488722
 H        -0.861122        -0.708697        -0.065624
 H        -0.922405         0.878277        -0.797661
 H         1.853737        -0.488621        -0.054898
 H        -0.791289         2.825597         0.468256
 H        -1.190376         2.889785         2.402527
