19
Iteration:  2206
 O         1.883747         2.486843         1.725073
 C         0.657434         1.810543         1.873371
 C         0.251917         1.053838         3.237989
 C        -0.361858         0.076959         2.259160
 C        -1.352844         0.896264         1.316107
 C        -0.491328         0.298776         0.081455
 C         0.619062         0.516078         1.070049
 O         1.872304         0.068910         0.720683
 C        -0.818081         2.299973         1.600474
 H         1.842822         2.943391         0.849473
 H         1.058196         0.390345         3.652788
 H        -0.303188         1.632421         3.998390
 H        -0.646690        -0.848816         2.558634
 H        -2.497524         1.026957         1.372831
 H        -0.533301        -0.837130         0.111573
 H        -0.511647         0.614337        -1.074961
 H         2.562659         0.436077         1.450462
 H        -1.027503         2.996962         0.802763
 H        -1.498930         2.714291         2.393693
