19
Iteration:  3970
 O         1.775080         2.586367         1.551854
 C         0.620049         1.784135         1.800727
 C         0.453706         1.046788         3.208980
 C        -0.452402         0.127961         2.322921
 C        -1.460121         0.871160         1.339075
 C        -0.652624         0.461343         0.028906
 C         0.647844         0.394918         1.065941
 O         2.056128        -0.112447         0.984181
 C        -0.739815         2.226612         1.514627
 H         1.682193         3.468490         2.013510
 H         1.282824         0.582112         3.652652
 H        -0.051413         1.682473         3.998983
 H        -0.735184        -0.912748         2.845578
 H        -2.538544         0.865824         1.233062
 H        -1.004348        -0.577894        -0.370576
 H        -0.524012         1.175692        -0.886754
 H         2.449550         0.853977         1.053002
 H        -1.114196         2.811657         0.669897
 H        -1.150351         2.889066         2.349181
