19
Iteration:  4437
 O         1.757158         2.531808         1.423803
 C         0.615640         1.842717         1.798750
 C         0.418033         1.073884         3.208781
 C        -0.372043         0.067385         2.253404
 C        -1.411589         0.885553         1.335941
 C        -0.537181         0.397539         0.074976
 C         0.638003         0.514829         1.147008
 O         1.958714        -0.106975         1.090070
 C        -0.840232         2.281855         1.488720
 H         1.990371         3.362964         1.890629
 H         1.288427         0.568673         3.585255
 H        -0.161005         1.540206         3.996552
 H        -0.417367        -1.005987         2.562193
 H        -2.434808         0.864468         1.321283
 H        -0.749666        -0.730383        -0.069633
 H        -0.666542         0.880667        -0.907264
 H         2.417854         0.696785         1.257508
 H        -0.839460         2.911937         0.652767
 H        -1.420557         2.731024         2.306428
