19
Iteration:  2737
 O         1.765996         2.691047         1.739093
 C         0.698298         1.837941         1.892449
 C         0.362475         0.988899         3.155454
 C        -0.433149         0.089819         2.276525
 C        -1.321872         0.919913         1.284504
 C        -0.545172         0.277759         0.090186
 C         0.601122         0.496967         1.075882
 O         1.910643         0.025450         0.844735
 C        -0.805333         2.330562         1.540605
 H         2.218957         2.359443         0.937925
 H         1.252004         0.341052         3.386792
 H        -0.012756         1.390243         4.094251
 H        -0.685584        -0.881285         2.555327
 H        -2.451576         0.974082         1.199628
 H        -0.602777        -0.801786         0.177862
 H        -0.708142         0.669658        -0.869335
 H         2.258356        -0.951632         1.071715
 H        -0.773967         2.774241         0.511263
 H        -1.409510         2.769233         2.324216
