19
Iteration:  3448charge 0 multiplicity 1
 O         1.777132         2.561079         1.838971
 C         0.621498         1.841626         1.871179
 C         0.483968         1.031597         3.230430
 C        -0.349284         0.064620         2.293270
 C        -1.390589         0.929981         1.336057
 C        -0.594129         0.270025         0.179349
 C         0.519080         0.421854         1.061196
 O         1.894875        -0.071559         0.689405
 C        -0.719115         2.446917         1.369921
 H         1.571454         3.359315         1.311300
 H         1.388477         0.590192         3.570112
 H        -0.068061         1.654866         3.939217
 H        -0.520747        -0.977662         2.578590
 H        -2.418945         0.695112         1.553087
 H        -0.924406        -0.806744         0.125647
 H        -0.532835         0.837365        -0.825000
 H         2.498031         0.353706         1.379765
 H        -0.718540         2.677475         0.293044
 H        -1.295358         3.090821         2.036700
