19
Iteration:  1202
 O         1.690935         2.637850         1.660642
 C         0.609675         1.778293         1.897026
 C         0.537980         0.923852         3.174224
 C        -0.356377         0.017800         2.229275
 C        -1.384135         0.946154         1.363293
 C        -0.430282         0.602671         0.051606
 C         0.636992         0.461119         1.047604
 O         1.803550        -0.179013         0.785811
 C        -0.850500         2.270666         1.663292
 H         1.367033         3.546775         1.795674
 H         1.448009         0.327654         3.258154
 H         0.246348         1.410131         4.100476
 H        -0.625642        -1.087066         2.461246
 H        -2.456894         0.718821         1.377659
 H        -0.756895        -0.219841        -0.552367
 H        -0.373233         1.388560        -0.695245
 H         2.705881         0.149461         1.166352
 H        -0.859318         2.946488         0.793948
 H        -1.185316         2.852798         2.545079
