19
Iteration:  1366
 O         1.833315         2.621962         1.852303
 C         0.626562         1.801139         1.891227
 C         0.403291         1.072207         3.216793
 C        -0.275988         0.075452         2.235547
 C        -1.366865         0.861100         1.330093
 C        -0.572154         0.524024         0.039602
 C         0.618630         0.426790         1.025755
 O         1.883182        -0.132425         0.704382
 C        -0.856969         2.303991         1.599599
 H         1.717163         3.446935         1.330245
 H         1.296364         0.674870         3.561006
 H        -0.289981         1.488412         3.954929
 H        -0.495738        -0.973109         2.369268
 H        -2.326928         0.506748         1.261608
 H        -0.877743        -0.388585        -0.441574
 H        -0.442860         1.251298        -0.738588
 H         1.758489        -0.963476         1.069725
 H        -0.883704         2.963619         0.687269
 H        -1.242717         2.775339         2.492416
