19
Iteration:  1853charge 0 multiplicity 1
 O         1.755679         2.610987         1.957531
 C         0.591452         1.844120         1.860241
 C         0.359994         0.977635         3.180084
 C        -0.313347        -0.011713         2.279305
 C        -1.324870         0.870064         1.418023
 C        -0.644852         0.384450         0.150771
 C         0.585830         0.509976         1.030912
 O         1.962217         0.021651         0.673354
 C        -0.717925         2.351838         1.406710
 H         2.224551         2.896724         1.148021
 H         1.370311         0.764514         3.493493
 H        -0.192060         1.393895         4.031099
 H        -0.658727        -1.067057         2.322912
 H        -2.309198         0.723277         1.630894
 H        -0.857610        -0.680054        -0.034832
 H        -0.798112         0.992230        -0.729788
 H         1.732136        -0.785722         0.299939
 H        -0.645702         2.774854         0.388857
 H        -1.196127         3.146294         1.967696
