19
Iteration:  2069charge 0 multiplicity 1
 O         1.761404         2.712108         1.737529
 C         0.636095         1.829018         1.908929
 C         0.434995         0.922979         3.178616
 C        -0.386859         0.013340         2.175336
 C        -1.328215         0.882058         1.317109
 C        -0.502526         0.520671         0.010903
 C         0.602688         0.447717         1.053547
 O         1.868124        -0.154184         0.935555
 C        -0.803225         2.319061         1.652375
 H         1.608221         3.157777         0.887325
 H         1.411834         0.409371         3.431461
 H        -0.160366         1.422705         3.989552
 H        -0.530159        -1.076951         2.371899
 H        -2.406566         0.814800         1.420243
 H        -0.881347        -0.451351        -0.293847
 H        -0.457790         1.153441        -0.849388
 H         2.240641         0.004157         0.051719
 H        -0.870120         2.926324         0.689936
 H        -1.272459         2.883673         2.497855
