19
Iteration:  4583charge 0 multiplicity 1
 O         1.729127         2.600247         1.454012
 C         0.577218         1.794006         1.792657
 C         0.328912         1.142740         3.240927
 C        -0.345804         0.086144         2.338083
 C        -1.376420         0.917777         1.331359
 C        -0.535295         0.297408         0.044938
 C         0.685324         0.375650         1.139876
 O         1.940168        -0.043337         1.030716
 C        -0.759596         2.300265         1.484496
 H         2.395089         2.469935         2.160319
 H         1.197244         0.718568         3.771005
 H        -0.255565         1.739879         3.964648
 H        -0.838681        -0.829799         2.605206
 H        -2.517700         0.713514         1.427198
 H        -0.879087        -0.770220        -0.250568
 H        -0.414518         1.042415        -0.769740
 H         2.401077         0.612429         0.487180
 H        -0.854182         2.970332         0.592199
 H        -1.246238         2.841499         2.299257
