19
Iteration:   717charge 0 multiplicity 1
 O         1.753515         2.618361         1.735219
 C         0.608260         1.832001         1.928100
 C         0.466914         0.913889         3.158891
 C        -0.270343         0.011122         2.158601
 C        -1.352001         0.917847         1.307538
 C        -0.614726         0.536236         0.034649
 C         0.556081         0.486973         1.014949
 O         1.878412        -0.147183         0.882719
 C        -0.777261         2.353775         1.714898
 H         1.796092         2.923439         0.817884
 H         1.454501         0.531184         3.378392
 H        -0.015451         1.365293         4.080423
 H        -0.692050        -1.039434         2.291111
 H        -2.300287         0.608439         1.332862
 H        -0.860441        -0.526215        -0.206595
 H        -0.561119         1.087635        -0.930888
 H         2.484931         0.454443         0.395592
 H        -0.978480         3.118486         1.028513
 H        -1.254561         2.703454         2.636837
