19
Iteration:  3933
 O         1.805571         2.594306         1.636793
 C         0.603344         1.942150         1.877866
 C         0.350879         1.050619         3.310198
 C        -0.316444         0.080741         2.326925
 C        -1.390730         0.908903         1.294560
 C        -0.462263         0.245655         0.122470
 C         0.646258         0.458076         1.062696
 O         1.818015        -0.144726         0.761067
 C        -0.837489         2.389574         1.448429
 H         2.119689         3.000062         2.483524
 H         1.408723         0.775191         3.667978
 H        -0.289594         1.369112         4.100894
 H        -0.383715        -0.926642         2.478013
 H        -2.498979         0.920140         1.341764
 H        -0.820079        -0.740231         0.178384
 H        -0.469812         0.688163        -0.792013
 H         2.664402         0.457652         0.779062
 H        -0.844908         2.678397         0.375534
 H        -1.401720         3.063215         2.208680
