19
Iteration:   684charge 0 multiplicity 1
 O         1.769978         2.650813         1.833739
 C         0.689347         1.778550         1.910961
 C         0.408686         0.938033         3.173325
 C        -0.440345         0.009237         2.283785
 C        -1.392637         0.879616         1.410388
 C        -0.581757         0.478684         0.101307
 C         0.608409         0.410922         1.074723
 O         1.889176         0.002666         0.558527
 C        -0.682209         2.300429         1.525955
 H         1.546330         3.505294         1.434306
 H         1.314617         0.430394         3.490241
 H         0.058049         1.569690         4.060416
 H        -1.021085        -0.913235         2.732913
 H        -2.383113         0.603421         1.411931
 H        -0.946987        -0.563183        -0.125146
 H        -0.467306         1.178972        -0.780804
 H         2.442607        -0.046138         1.440141
 H        -0.617870         2.678580         0.540381
 H        -1.195740         2.944161         2.261764
