19
Iteration:  2992
 O         1.691228         2.746369         1.742966
 C         0.716904         1.803472         1.903047
 C         0.395520         1.087486         3.188886
 C        -0.326315         0.053395         2.359469
 C        -1.353203         0.859967         1.335853
 C        -0.530082         0.505682         0.001428
 C         0.634144         0.408911         1.030178
 O         1.813143        -0.281983         0.771276
 C        -0.754428         2.292752         1.567959
 H         1.408395         3.206132         0.917221
 H         1.348565         0.604342         3.489292
 H        -0.032768         1.665135         4.023193
 H        -0.539624        -1.012834         2.673708
 H        -2.512563         0.789540         1.216431
 H        -0.710328        -0.491938        -0.334634
 H        -0.469950         1.241379        -0.838546
 H         2.402529        -0.053809         1.479694
 H        -0.783371         2.866391         0.639261
 H        -0.986505         2.998977         2.380017
