19
Iteration:  4393charge 0 multiplicity 1
 O         1.722569         2.677308         1.612324
 C         0.662451         1.781389         1.797523
 C         0.327902         1.182583         3.248676
 C        -0.393926         0.166215         2.363570
 C        -1.412462         0.851718         1.290309
 C        -0.558555         0.331245         0.157394
 C         0.695739         0.427860         1.106389
 O         1.941443        -0.207349         0.865071
 C        -0.739799         2.234074         1.422504
 H         1.618260         3.413978         2.255426
 H         1.289354         0.784623         3.661334
 H        -0.116200         1.830936         3.978706
 H        -0.727964        -0.901432         2.739328
 H        -2.480890         0.756197         1.324867
 H        -0.735567        -0.768725        -0.236472
 H        -0.461569         0.979607        -0.777881
 H         2.587507         0.381898         0.445676
 H        -0.925086         2.840629         0.555615
 H        -1.060102         2.843027         2.289338
