19
Iteration:  2766charge 0 multiplicity 1
 O         1.624819         2.772164         1.883291
 C         0.689514         1.761480         1.819975
 C         0.420495         1.098495         3.151526
 C        -0.250101         0.067737         2.343639
 C        -1.325460         0.897427         1.350243
 C        -0.547748         0.406414         0.064432
 C         0.596509         0.336626         1.082876
 O         1.884251        -0.152468         0.827935
 C        -0.800418         2.377809         1.399013
 H         2.275693         2.677645         1.188955
 H         1.323193         0.651024         3.622758
 H        -0.035766         1.642262         3.988298
 H        -0.724892        -0.965225         2.636267
 H        -2.375711         0.753770         1.554886
 H        -0.762067        -0.609509        -0.433970
 H        -0.480789         1.153170        -0.829194
 H         1.927803        -0.986841         0.324666
 H        -0.804762         2.784512         0.387116
 H        -1.295891         3.029849         2.165738
