19
Iteration:   194
 O         1.827304         2.586546         1.946747
 C         0.688868         1.779069         1.854228
 C         0.408751         0.985474         3.136377
 C        -0.390199         0.099765         2.179330
 C        -1.340206         0.881615         1.312854
 C        -0.586802         0.403354         0.070216
 C         0.617732         0.534515         1.021176
 O         1.869423        -0.003729         0.711629
 C        -0.843886         2.254844         1.567450
 H         2.055474         2.579866         2.882954
 H         1.331149         0.465758         3.551789
 H        -0.064371         1.537749         4.003099
 H        -0.501705        -0.973751         2.437912
 H        -2.489110         0.700844         1.354222
 H        -0.868844        -0.681491        -0.238878
 H        -0.551461         1.078092        -0.819559
 H         2.162706         0.431522        -0.147527
 H        -1.028841         2.906119         0.700181
 H        -1.253724         2.758928         2.555234
