19
Iteration:  2624charge 0 multiplicity 1
 O         1.634170         2.942674         1.890723
 C         0.668377         1.949376         1.837848
 C         0.473527         1.081060         3.092293
 C        -0.317841         0.034091         2.286204
 C        -1.355113         0.860577         1.358179
 C        -0.612206         0.391436         0.090718
 C         0.655621         0.395278         1.038746
 O         1.864841        -0.361274         0.883883
 C        -0.760533         2.267163         1.417633
 H         2.524251         2.646054         1.681977
 H         1.451804         0.779843         3.523018
 H        -0.155406         1.535672         3.904747
 H        -0.636670        -1.062488         2.587771
 H        -2.314143         0.447282         1.381625
 H        -0.876098        -0.632733        -0.253009
 H        -0.515472         1.175488        -0.725189
 H         1.997842        -0.254794        -0.058021
 H        -0.687780         2.752148         0.430131
 H        -1.212942         2.958890         2.199844
