19
Iteration:   655charge 0 multiplicity 1
 O         1.806429         2.612927         1.974836
 C         0.686232         1.870703         1.919910
 C         0.353830         1.054674         3.244789
 C        -0.240959         0.064461         2.214494
 C        -1.335787         0.922274         1.346951
 C        -0.538495         0.337368         0.099831
 C         0.615545         0.470295         1.040629
 O         1.773123        -0.146708         0.418818
 C        -0.800067         2.345310         1.587733
 H         1.627873         3.551998         1.846563
 H         1.264811         0.775860         3.838174
 H        -0.358327         1.587229         3.811250
 H        -0.553700        -0.871842         2.481239
 H        -2.435222         0.613024         1.356628
 H        -0.820797        -0.704141         0.123672
 H        -0.464900         0.671424        -0.960438
 H         2.391821        -0.173884         1.225975
 H        -0.861106         2.918385         0.620784
 H        -1.356091         2.779588         2.411375
