19
Iteration:  4733
 O         1.662101         2.735785         1.515320
 C         0.601753         1.829775         1.814366
 C         0.399533         1.113986         3.225084
 C        -0.299538         0.031925         2.325730
 C        -1.317235         0.952833         1.281836
 C        -0.570391         0.282317         0.048570
 C         0.651599         0.337334         1.149567
 O         1.933989        -0.146402         1.058759
 C        -0.809367         2.349774         1.428709
 H         2.458656         2.454101         2.013173
 H         1.353114         0.768394         3.630278
 H        -0.386855         1.737394         3.840768
 H        -0.719044        -0.858071         2.851618
 H        -2.449585         0.746658         1.510253
 H        -0.862432        -0.716394        -0.301318
 H        -0.476757         0.822041        -0.878705
 H         2.453966         0.446340         0.564836
 H        -0.901893         2.904053         0.480301
 H        -1.297028         2.879790         2.330611
