19
Iteration:  1929
 O         1.653563         2.821018         1.742987
 C         0.599718         1.838692         1.940940
 C         0.528590         0.874959         3.225748
 C        -0.291112        -0.058653         2.201539
 C        -1.337643         0.877208         1.304580
 C        -0.544573         0.558241         0.043544
 C         0.618833         0.439190         1.024143
 O         1.835254        -0.147536         0.943075
 C        -0.754323         2.352825         1.543658
 H         1.830591         2.882479         0.787932
 H         1.532591         0.383285         3.269825
 H         0.204730         1.185031         4.241724
 H        -0.571406        -1.148754         2.377676
 H        -2.357798         0.913349         1.198467
 H        -0.862139        -0.512086        -0.371296
 H        -0.674002         1.434074        -0.663270
 H         1.756743        -1.019459         0.383615
 H        -0.869039         2.881728         0.570702
 H        -1.059279         3.034202         2.346268
