19
Iteration:   972charge 0 multiplicity 1
 O         1.787835         2.636469         1.958042
 C         0.637415         1.775296         1.979394
 C         0.472715         0.924820         3.273185
 C        -0.353187         0.073110         2.281509
 C        -1.350634         0.949229         1.324192
 C        -0.530677         0.403040         0.081787
 C         0.570605         0.398244         1.055400
 O         1.826065        -0.110151         0.510876
 C        -0.767242         2.352416         1.485928
 H         1.521263         3.567909         1.849351
 H         1.459823         0.333528         3.489004
 H        -0.209151         1.485292         3.967359
 H        -0.646505        -1.056065         2.471274
 H        -2.489083         0.807516         1.363372
 H        -0.836866        -0.610430        -0.288180
 H        -0.624027         1.064526        -0.831242
 H         2.273365         0.750499         0.364956
 H        -0.691183         3.018520         0.589682
 H        -1.137979         3.083716         2.262523
