19
Iteration:   148charge 0 multiplicity 1
 O         1.562724         2.847674         1.774998
 C         0.682975         1.728371         1.878592
 C         0.374298         0.831230         3.201485
 C        -0.339272         0.022735         2.156461
 C        -1.360570         0.936268         1.358109
 C        -0.536025         0.585164         0.027410
 C         0.708891         0.475942         0.995815
 O         1.863595        -0.239251         0.805524
 C        -0.687461         2.318854         1.662325
 H         2.455240         2.639143         1.423187
 H         1.227254         0.239350         3.725254
 H        -0.216790         1.303810         4.052971
 H        -0.821763        -1.064627         2.329751
 H        -2.486058         0.792044         1.404359
 H        -0.658447        -0.543819        -0.271682
 H        -0.607792         1.206712        -0.892384
 H         2.607612         0.443395         0.593774
 H        -0.735316         3.115112         0.847379
 H        -1.119104         2.743576         2.651436
