19
Iteration:  2896charge 0 multiplicity 1
 O         1.815177         2.523622         1.688671
 C         0.619295         1.789205         1.915521
 C         0.349822         1.095256         3.263412
 C        -0.414437         0.117122         2.268084
 C        -1.297334         0.943107         1.323348
 C        -0.477160         0.323853         0.094625
 C         0.608150         0.405518         1.158541
 O         1.892731        -0.075381         0.687021
 C        -0.810109         2.329317         1.488531
 H         1.595877         3.462571         1.777881
 H         1.314427         0.567198         3.345251
 H        -0.108168         1.573627         4.126047
 H        -0.798876        -0.896536         2.654118
 H        -2.362945         0.812251         1.503792
 H        -0.750478        -0.680289        -0.024099
 H        -0.633029         0.962403        -0.726550
 H         2.499518         0.687651         0.644029
 H        -1.106241         2.966707         0.672357
 H        -1.321895         2.712746         2.379656
