19
Iteration:  1558
 O         1.741410         2.630860         1.894137
 C         0.639870         1.815504         1.912885
 C         0.359061         0.992984         3.190950
 C        -0.321335         0.060826         2.245180
 C        -1.375793         0.918061         1.403258
 C        -0.601706         0.375557         0.093080
 C         0.610859         0.421737         1.048863
 O         1.932630        -0.045657         0.620733
 C        -0.738353         2.346180         1.438004
 H         1.984519         2.867247         2.799475
 H         1.341878         0.789101         3.581395
 H        -0.234366         1.513930         3.958995
 H        -0.625844        -0.957233         2.627319
 H        -2.404411         0.953519         1.581300
 H        -0.821612        -0.687941        -0.000779
 H        -0.413040         1.053026        -0.771786
 H         1.857194        -0.673339        -0.116100
 H        -0.683826         2.860711         0.535538
 H        -1.067698         3.139521         2.090893
