19
Iteration:  1176
 O         1.798447         2.625296         1.543833
 C         0.580552         1.874158         1.894961
 C         0.468326         0.908957         3.195326
 C        -0.347177         0.031852         2.248270
 C        -1.343008         0.907063         1.264896
 C        -0.445455         0.644872        -0.015351
 C         0.616983         0.452622         1.048189
 O         1.842853        -0.211973         0.834591
 C        -0.919050         2.263196         1.837600
 H         1.606190         3.510497         1.183569
 H         1.445755         0.407693         3.617218
 H        -0.034971         1.404919         4.086574
 H        -0.619189        -1.140412         2.371561
 H        -2.427001         0.522022         1.374199
 H        -0.788998        -0.164863        -0.732021
 H        -0.365103         1.559069        -0.653398
 H         2.662616         0.092579         1.408529
 H        -1.122738         3.161544         1.231476
 H        -1.363667         2.424114         2.876236
