19
Iteration:  2822charge 0 multiplicity 1
 O         1.609058         2.823297         1.655256
 C         0.610110         1.848894         1.882406
 C         0.419485         1.065544         3.184661
 C        -0.322302         0.040302         2.301085
 C        -1.321377         0.918957         1.237915
 C        -0.474011         0.401585         0.084351
 C         0.601106         0.398249         1.114618
 O         1.847216        -0.248970         0.902835
 C        -0.732584         2.322196         1.572183
 H         2.446327         2.307569         1.801340
 H         1.393617         0.508719         3.303078
 H         0.076946         1.591379         4.070682
 H        -0.779348        -0.968997         2.352934
 H        -2.328296         0.794734         1.340053
 H        -0.742014        -0.696152        -0.155842
 H        -0.217590         1.011126        -0.863518
 H         2.139669        -0.132286         0.027321
 H        -0.753535         3.101706         0.786067
 H        -1.322760         2.740292         2.401880
