19
Iteration:  4582charge 0 multiplicity 1
 O         1.732867         2.603145         1.453785
 C         0.582442         1.794557         1.795082
 C         0.325784         1.140019         3.240589
 C        -0.339451         0.088322         2.336834
 C        -1.379843         0.919221         1.332988
 C        -0.534525         0.288447         0.045249
 C         0.684925         0.378591         1.142729
 O         1.929304        -0.038075         1.029203
 C        -0.757254         2.297557         1.478221
 H         2.387993         2.477362         2.161773
 H         1.174956         0.717810         3.766368
 H        -0.217575         1.731391         3.985777
 H        -0.835613        -0.835994         2.589796
 H        -2.528515         0.712606         1.416440
 H        -0.878334        -0.797472        -0.276688
 H        -0.391133         1.049681        -0.745967
 H         2.390337         0.598416         0.505948
 H        -0.850231         2.976620         0.620895
 H        -1.243586         2.835307         2.297636
