19
Iteration:  4561
 O         1.781389         2.694899         1.521611
 C         0.602813         1.868360         1.852674
 C         0.448803         1.097505         3.174959
 C        -0.428520         0.102580         2.346009
 C        -1.361047         0.822178         1.265289
 C        -0.507979         0.297635         0.101019
 C         0.637220         0.438867         1.163994
 O         1.810586        -0.123569         0.978205
 C        -0.768654         2.312307         1.437552
 H         2.440156         2.781966         2.222921
 H         1.343039         0.540577         3.535899
 H        -0.088851         1.580635         4.003241
 H        -0.529470        -0.948211         2.610824
 H        -2.527312         0.645037         1.304372
 H        -0.637239        -0.868534         0.211998
 H        -0.508290         0.855077        -0.859475
 H         2.362977         0.688895         0.908758
 H        -0.812612         2.745415         0.402224
 H        -1.403133         2.955615         2.073926
