19
Iteration:  2683
 O         1.644863         2.705732         1.605814
 C         0.640317         1.798723         1.804168
 C         0.448204         1.041814         3.219632
 C        -0.406864         0.086531         2.306786
 C        -1.370297         0.818591         1.360347
 C        -0.445204         0.502882         0.069375
 C         0.608430         0.423257         1.121126
 O         1.927970        -0.091347         0.885448
 C        -0.814098         2.284067         1.517201
 H         2.389224         2.399929         2.158081
 H         1.423161         0.588181         3.498011
 H        -0.054946         1.492007         4.070618
 H        -0.796831        -0.834180         2.534586
 H        -2.464743         0.589664         1.303753
 H        -0.751197        -0.322979        -0.531215
 H        -0.310962         1.346365        -0.534253
 H         2.132276        -0.993089         0.434050
 H        -0.922688         2.913698         0.596958
 H        -1.151247         2.917669         2.339006
