19
Iteration:  2194charge 0 multiplicity 1
 O         1.907594         2.460776         1.803438
 C         0.627314         1.871749         1.933853
 C         0.271047         1.078410         3.223874
 C        -0.435996         0.112401         2.276564
 C        -1.373217         0.796112         1.315855
 C        -0.535044         0.237891         0.092498
 C         0.632926         0.537614         1.068497
 O         1.892606         0.098225         0.647230
 C        -0.801524         2.341365         1.539227
 H         2.117568         2.619831         0.861681
 H         1.112789         0.637608         3.861212
 H        -0.393867         1.660480         3.924952
 H        -0.608868        -0.880846         2.508083
 H        -2.456471         0.491761         1.447934
 H        -0.735480        -0.887519        -0.040006
 H        -0.533119         0.778990        -0.922188
 H         2.590326         0.518170         1.133201
 H        -0.780127         2.990851         0.643918
 H        -1.153077         2.812554         2.478733
