19
Iteration:  1640charge 0 multiplicity 1
 O         1.702790         2.741518         1.747654
 C         0.663295         1.742907         1.891700
 C         0.570414         0.891316         3.126702
 C        -0.411475         0.004806         2.118905
 C        -1.387667         0.905634         1.350236
 C        -0.533140         0.636070         0.007337
 C         0.594629         0.457109         1.022061
 O         1.867447        -0.142741         1.004463
 C        -0.790886         2.283215         1.646720
 H         1.524812         3.169777         0.882241
 H         1.613023         0.421035         3.168141
 H         0.393470         1.482868         4.029272
 H        -0.574100        -1.063419         2.243981
 H        -2.560813         0.754212         1.503368
 H        -0.898440        -0.173022        -0.663843
 H        -0.527994         1.481105        -0.686737
 H         1.920077        -0.998840         0.686530
 H        -0.718301         2.970249         0.781090
 H        -1.170903         2.715792         2.584880
