19
Iteration:  2022charge 0 multiplicity 1
 O         1.828443         2.612000         1.976631
 C         0.631250         1.871022         1.931228
 C         0.386583         1.063716         3.128373
 C        -0.340028         0.003337         2.260822
 C        -1.355931         0.895424         1.398248
 C        -0.610563         0.324848         0.099637
 C         0.582450         0.387948         1.021252
 O         1.858910        -0.017095         0.614712
 C        -0.722629         2.274144         1.442103
 H         1.838452         3.372474         1.367458
 H         1.291383         0.615013         3.455091
 H        -0.185605         1.508672         3.966499
 H        -0.817028        -0.848033         2.682455
 H        -2.545538         0.783234         1.403476
 H        -0.739994        -0.626483        -0.270445
 H        -0.618650         1.127410        -0.615757
 H         2.491475         0.292242         1.222164
 H        -0.723627         2.682580         0.404750
 H        -1.251866         3.113096         2.059114
