19
Iteration:  3536charge 0 multiplicity 1
 O         1.756602         2.848058         1.673146
 C         0.676035         1.851232         1.860981
 C         0.449722         0.968415         3.175169
 C        -0.287557         0.103635         2.187804
 C        -1.443157         0.904698         1.268842
 C        -0.614502         0.433243         0.028130
 C         0.625726         0.391048         1.005675
 O         1.839606        -0.302888         1.052715
 C        -0.722853         2.278835         1.650664
 H         1.717730         3.387032         0.850752
 H         1.367539         0.630669         3.422155
 H        -0.022275         1.316245         4.075303
 H        -0.700825        -0.927662         2.247854
 H        -2.438613         0.630131         1.464420
 H        -0.825805        -0.591912        -0.347476
 H        -0.504490         1.272188        -0.764458
 H         2.333341         0.179614         0.424592
 H        -0.885892         2.997931         0.823177
 H        -1.192900         2.596705         2.587257
