19
Iteration:  2100
 O         1.586028         2.817557         1.732816
 C         0.609391         1.815270         1.915792
 C         0.568835         0.991230         3.112777
 C        -0.353494         0.017604         2.182988
 C        -1.322381         0.920004         1.270232
 C        -0.428980         0.660318        -0.007319
 C         0.635268         0.417796         1.057136
 O         1.809699        -0.429208         0.974272
 C        -0.794020         2.271635         1.679375
 H         1.295371         3.471427         1.067079
 H         1.517172         0.543291         3.320547
 H         0.081268         1.462295         4.011553
 H        -0.421191        -1.032588         2.445831
 H        -2.452140         0.834813         1.373646
 H        -0.842864        -0.166829        -0.459141
 H        -0.285938         1.457626        -0.705847
 H         2.482470        -0.133989         0.290057
 H        -0.882822         2.841289         0.747780
 H        -1.216264         2.763540         2.588314
