19
Iteration:  1170charge 0 multiplicity 1
 O         1.789071         2.641304         1.550536
 C         0.623940         1.802365         1.930875
 C         0.426621         0.949429         3.221337
 C        -0.313854         0.013392         2.177995
 C        -1.369132         0.940430         1.345889
 C        -0.462206         0.601661        -0.088053
 C         0.661033         0.477641         1.048012
 O         1.833148        -0.196920         0.838720
 C        -0.908490         2.227422         1.826881
 H         1.540065         3.469164         1.114969
 H         1.237116         0.446366         3.665695
 H        -0.036210         1.359117         4.101329
 H        -0.623661        -1.006119         2.424759
 H        -2.427646         0.739616         1.300852
 H        -0.876344        -0.233236        -0.628016
 H        -0.421480         1.536107        -0.639855
 H         2.538478         0.193554         1.335062
 H        -1.023860         3.121959         1.205710
 H        -1.167637         2.496220         2.842062
