19
Iteration:  4982
 O         1.663850         2.846642         1.689514
 C         0.643495         1.886211         1.792364
 C         0.403249         1.136371         3.207491
 C        -0.317061         0.101433         2.330918
 C        -1.337972         0.869330         1.322038
 C        -0.580234         0.260999         0.116004
 C         0.705168         0.399462         1.093135
 O         1.851368        -0.273810         0.979487
 C        -0.824477         2.288072         1.334038
 H         2.547688         2.468499         1.855722
 H         1.319493         0.671749         3.540545
 H        -0.047210         1.599912         4.047406
 H        -0.486752        -0.935814         2.460816
 H        -2.418820         0.702258         1.466387
 H        -0.970794        -0.656988        -0.252294
 H        -0.394296         1.039929        -0.723091
 H         2.516525         0.418053         0.725581
 H        -0.810282         2.604089         0.352937
 H        -1.226470         3.011805         1.989031
