19
Iteration:   603
 O         1.615383         2.775601         1.853320
 C         0.631441         1.746986         1.898212
 C         0.549443         0.863272         3.105605
 C        -0.378743         0.009819         2.193691
 C        -1.299716         0.976564         1.331336
 C        -0.576534         0.514500         0.013229
 C         0.568612         0.410876         1.022563
 O         1.845106        -0.216136         0.835163
 C        -0.672075         2.345120         1.697429
 H         1.505521         3.034402         0.931226
 H         1.582749         0.435548         3.152339
 H         0.273488         1.343840         4.036404
 H        -0.649839        -0.992729         2.380506
 H        -2.504801         0.893308         1.195277
 H        -0.825415        -0.404181        -0.496882
 H        -0.587981         1.242104        -0.772301
 H         2.441305         0.544949         0.470745
 H        -0.735263         3.137419         0.879081
 H        -1.154116         2.791622         2.590004
