19
Iteration:  2582charge 0 multiplicity 1
 O         1.702590         2.713831         1.580565
 C         0.605231         1.805626         1.852232
 C         0.356636         1.045341         3.217029
 C        -0.350513         0.097727         2.221912
 C        -1.345288         0.869890         1.285296
 C        -0.516754         0.362654         0.170736
 C         0.686928         0.435335         1.077422
 O         1.912840        -0.189896         0.826865
 C        -0.792629         2.351502         1.593622
 H         2.187435         2.916729         2.407604
 H         1.301297         0.617782         3.715633
 H        -0.306510         1.563714         3.936232
 H        -0.765314        -0.978226         2.490156
 H        -2.444024         0.817658         1.239516
 H        -0.681200        -0.723905         0.191740
 H        -0.727192         0.887655        -0.768394
 H         2.548711         0.449660         0.548303
 H        -0.860355         2.999934         0.674837
 H        -1.235841         2.836485         2.530966
