19
Iteration:   489charge 0 multiplicity 1
 O         1.762708         2.737734         1.983328
 C         0.666256         1.852198         1.900628
 C         0.396396         0.980098         3.152226
 C        -0.257625         0.017687         2.195987
 C        -1.375693         0.837055         1.367063
 C        -0.711425         0.375763         0.064405
 C         0.557607         0.455029         1.003828
 O         1.866299        -0.105123         0.612965
 C        -0.708472         2.346243         1.548214
 H         2.474904         2.103308         2.154959
 H         1.337487         0.685528         3.564487
 H        -0.120199         1.643716         3.892806
 H        -0.509821        -1.078047         2.479061
 H        -2.384314         0.846569         1.458113
 H        -0.822655        -0.654115        -0.141897
 H        -0.867432         0.861028        -0.830902
 H         2.457602         0.621577         0.648367
 H        -0.648245         2.902440         0.654369
 H        -1.203450         2.969720         2.304496
