19
Iteration:  2388charge 0 multiplicity 1
 O         1.755857         2.496856         1.609338
 C         0.590792         1.815453         1.857504
 C         0.428428         1.041770         3.259583
 C        -0.362706         0.032965         2.328110
 C        -1.397912         0.856894         1.269318
 C        -0.507431         0.540035         0.048613
 C         0.597894         0.397338         1.132402
 O         1.914628        -0.046020         0.914591
 C        -0.809241         2.280942         1.526918
 H         1.716789         3.048103         0.804771
 H         1.393981         0.509890         3.522719
 H         0.143471         1.585622         4.153196
 H        -0.702424        -0.908127         2.715422
 H        -2.498552         0.783448         1.255432
 H        -0.633630        -0.473008        -0.478105
 H        -0.354612         1.353898        -0.818064
 H         2.350130         0.890731         0.980365
 H        -0.792864         2.925734         0.603486
 H        -1.242445         2.863430         2.328084
