19
Iteration:  1284
 O         1.771387         2.657758         1.744911
 C         0.643098         1.814301         1.930606
 C         0.434231         1.039129         3.206966
 C        -0.336839         0.009697         2.258225
 C        -1.367785         0.853634         1.380558
 C        -0.479013         0.524567         0.005811
 C         0.633568         0.411760         1.107962
 O         1.838848        -0.110691         0.696968
 C        -0.832302         2.327096         1.564343
 H         2.127321         2.869655         2.620889
 H         1.284969         0.525202         3.776328
 H        -0.222034         1.454087         4.022646
 H        -0.592789        -1.037714         2.517957
 H        -2.509491         0.623580         1.286756
 H        -0.574403        -0.516169        -0.379974
 H        -0.495781         1.447471        -0.578088
 H         1.796473        -0.279214        -0.287283
 H        -1.006532         2.873388         0.639731
 H        -1.320127         2.915704         2.369167
