19
Iteration:  4429
 O         1.743316         2.509698         1.418384
 C         0.575398         1.895125         1.823558
 C         0.404001         1.055300         3.272092
 C        -0.318877         0.077351         2.281248
 C        -1.353613         0.878458         1.309350
 C        -0.503221         0.351306         0.091460
 C         0.619981         0.489790         1.131516
 O         1.903392        -0.089261         1.056289
 C        -0.843739         2.350087         1.465386
 H         1.990265         3.334811         1.879942
 H         1.288057         0.537973         3.505741
 H        -0.218138         1.405958         4.102964
 H        -0.579424        -0.943069         2.473657
 H        -2.426608         0.695584         1.461534
 H        -0.743813        -0.730087        -0.238753
 H        -0.449991         0.883474        -0.870118
 H         2.542447         0.616843         1.208167
 H        -0.889293         2.878698         0.532629
 H        -1.234171         2.808908         2.363446
