19
Iteration:  1352
 O         1.775603         2.645072         1.822095
 C         0.651339         1.854615         1.872430
 C         0.529151         0.973982         3.127247
 C        -0.354820        -0.004127         2.200792
 C        -1.387274         0.849833         1.291528
 C        -0.483749         0.593323         0.003979
 C         0.606567         0.477702         1.063026
 O         1.838773        -0.126058         0.854586
 C        -0.887411         2.299139         1.605874
 H         1.719022         3.116777         0.963929
 H         1.542388         0.474490         3.294311
 H         0.277049         1.551998         4.043945
 H        -0.606771        -1.077664         2.575803
 H        -2.480321         0.819489         1.461652
 H        -0.641515        -0.404169        -0.322688
 H        -0.547249         1.446378        -0.584594
 H         1.854641        -1.133073         1.048949
 H        -1.072122         2.949247         0.761333
 H        -1.371165         2.811838         2.469220
