19
Iteration:  2724charge 0 multiplicity 1
 O         1.817220         2.660726         1.647408
 C         0.622055         1.844348         1.873181
 C         0.325681         0.956409         3.224458
 C        -0.369566         0.085002         2.198852
 C        -1.377500         0.880141         1.307695
 C        -0.539340         0.304311         0.105077
 C         0.624639         0.473900         1.083639
 O         1.929517         0.068190         0.874394
 C        -0.795183         2.352494         1.545722
 H         2.420267         2.163628         1.047875
 H         1.205089         0.469092         3.747991
 H        -0.266623         1.501513         3.955466
 H        -0.703730        -1.004228         2.359634
 H        -2.359032         0.620911         1.520932
 H        -0.810523        -0.786182        -0.094549
 H        -0.455152         0.747714        -0.921259
 H         1.866637        -0.767170         1.251614
 H        -0.907037         3.165787         0.800844
 H        -1.236094         2.874313         2.431368
