19
Iteration:  1641
 O         1.699866         2.743025         1.750547
 C         0.667865         1.743747         1.890587
 C         0.571823         0.894288         3.121170
 C        -0.422576         0.007491         2.123386
 C        -1.379109         0.905794         1.351485
 C        -0.530184         0.634518         0.014780
 C         0.595422         0.458457         1.023394
 O         1.861385        -0.139791         0.997235
 C        -0.789318         2.277243         1.648541
 H         1.535068         3.151322         0.873367
 H         1.600737         0.395194         3.157540
 H         0.401126         1.489752         4.029483
 H        -0.568528        -1.064188         2.236353
 H        -2.592480         0.726957         1.463307
 H        -0.869571        -0.190041        -0.651751
 H        -0.493564         1.466361        -0.672995
 H         1.924746        -1.014742         0.688960
 H        -0.719418         3.003054         0.755401
 H        -1.178953         2.719608         2.602702
