19
Iteration:  3049
 O         1.815288         2.578897         1.832390
 C         0.696319         1.779293         1.848185
 C         0.488647         1.133073         3.152195
 C        -0.352267         0.173225         2.283937
 C        -1.383430         0.880559         1.273740
 C        -0.602423         0.319618         0.108410
 C         0.552675         0.403624         1.048977
 O         1.850177        -0.091773         0.835396
 C        -0.840796         2.253917         1.503207
 H         1.694139         3.355481         1.278750
 H         1.450116         0.583224         3.463937
 H         0.270966         1.775047         4.023692
 H        -0.796889        -0.883885         2.460442
 H        -2.439138         0.718874         1.267776
 H        -0.718516        -0.662754        -0.256033
 H        -0.591913         0.988022        -0.714821
 H         2.408383         0.673600         0.668953
 H        -0.856971         2.915237         0.654037
 H        -1.185894         2.804071         2.365532
