19
Iteration:  1276charge 0 multiplicity 1
 O         1.812276         2.606886         1.825681
 C         0.626481         1.869614         1.937178
 C         0.442591         1.059175         3.213991
 C        -0.305581         0.032183         2.314889
 C        -1.320580         0.848800         1.334891
 C        -0.531865         0.506188         0.057003
 C         0.573963         0.461207         1.089225
 O         1.847090        -0.115320         0.645683
 C        -0.868009         2.258932         1.519020
 H         1.947484         2.837966         2.758519
 H         1.524658         0.784007         3.515166
 H        -0.251150         1.534008         3.906814
 H        -0.547336        -1.107343         2.612832
 H        -2.451145         0.733451         1.295225
 H        -0.749939        -0.441195        -0.507882
 H        -0.254262         1.238724        -0.722558
 H         1.677398        -0.135409        -0.316532
 H        -0.825575         2.770275         0.561173
 H        -1.433434         2.876212         2.277589
