19
Iteration:  3537
 O         1.753400         2.841509         1.674252
 C         0.678790         1.863403         1.857384
 C         0.441760         0.963445         3.166267
 C        -0.285815         0.102160         2.192145
 C        -1.443351         0.902162         1.273344
 C        -0.625659         0.432006         0.033997
 C         0.627875         0.392783         1.008014
 O         1.839619        -0.300389         1.054406
 C        -0.711595         2.278124         1.649616
 H         1.711465         3.420130         0.867940
 H         1.373312         0.621346         3.397562
 H        -0.049334         1.343574         4.076221
 H        -0.715943        -0.924363         2.207123
 H        -2.432121         0.652504         1.415433
 H        -0.817623        -0.606650        -0.306129
 H        -0.492142         1.250827        -0.802246
 H         2.379847         0.207262         0.407058
 H        -0.895345         2.990536         0.840854
 H        -1.146894         2.564600         2.593635
