19
Iteration:  3621charge 0 multiplicity 1
 O         1.813299         2.494127         1.707918
 C         0.616922         1.851004         1.922428
 C         0.220418         1.126871         3.243825
 C        -0.281951         0.064317         2.319098
 C        -1.305836         0.959869         1.296297
 C        -0.594940         0.266813         0.131967
 C         0.651876         0.360304         1.060475
 O         1.894394        -0.042946         0.653085
 C        -0.742862         2.363602         1.526575
 H         1.734322         3.444216         1.808896
 H         1.186501         0.794226         3.710221
 H        -0.395670         1.714251         3.967737
 H        -0.501577        -0.995121         2.468906
 H        -2.403101         0.863466         1.492765
 H        -0.872166        -0.786447         0.071735
 H        -0.706402         0.691438        -0.807718
 H         2.650559         0.592088         1.010146
 H        -0.830505         3.097363         0.689590
 H        -1.356399         2.832441         2.309172
