19
Iteration:   731charge 0 multiplicity 1
 O         1.798281         2.655005         1.764818
 C         0.654770         1.824614         1.852730
 C         0.499321         0.948179         3.070454
 C        -0.347794         0.061702         2.133560
 C        -1.372937         0.940853         1.359896
 C        -0.534193         0.513885         0.000449
 C         0.666800         0.468354         0.980985
 O         1.869940        -0.169318         0.939601
 C        -0.954131         2.297172         1.806746
 H         1.879442         2.932985         0.810792
 H         1.391296         0.379088         3.509726
 H         0.025649         1.345334         3.967758
 H        -0.476770        -0.918113         2.411046
 H        -2.453610         0.830951         1.419558
 H        -0.915097        -0.483437        -0.310960
 H        -0.656444         1.325254        -0.844998
 H         2.227939        -0.139205         0.018188
 H        -1.142134         3.083412         1.037209
 H        -1.322585         2.605411         2.777259
