19
Iteration:  1830charge 0 multiplicity 1
 O         1.698988         2.801299         1.877771
 C         0.739631         1.802524         1.901344
 C         0.430058         0.991021         3.223639
 C        -0.350573         0.089736         2.168640
 C        -1.365022         0.914924         1.274108
 C        -0.640510         0.338957         0.061771
 C         0.589280         0.371211         0.986729
 O         1.900645        -0.054401         0.750935
 C        -0.714211         2.288743         1.651197
 H         2.212027         2.969032         1.079398
 H         1.281936         0.487570         3.590816
 H        -0.012435         1.564152         4.074531
 H        -0.662638        -0.904138         2.480403
 H        -2.362459         0.708460         1.313585
 H        -1.078895        -0.688872        -0.081477
 H        -0.482485         0.906460        -0.837043
 H         1.872465        -0.992559         0.314188
 H        -0.742188         3.092272         0.890494
 H        -1.294302         2.743110         2.426479
