19
Iteration:  4423charge 0 multiplicity 1
 O         1.754369         2.520584         1.412481
 C         0.549697         1.899892         1.880077
 C         0.360720         1.035107         3.261826
 C        -0.287723         0.119293         2.300405
 C        -1.304166         0.864361         1.285807
 C        -0.483099         0.314346         0.096888
 C         0.606252         0.405087         1.110574
 O         1.853607        -0.065596         1.025371
 C        -0.834417         2.379518         1.472019
 H         1.855526         3.312070         1.952068
 H         1.403309         0.647805         3.575503
 H        -0.103260         1.425620         4.199537
 H        -0.714728        -0.910400         2.424357
 H        -2.369011         0.529479         1.481326
 H        -0.662321        -0.699899        -0.136210
 H        -0.291675         1.051102        -0.716884
 H         2.675329         0.501773         1.072161
 H        -1.025755         2.943662         0.490570
 H        -1.198983         3.090514         2.268193
