19
Iteration:   519
 O         1.779243         2.659442         1.786134
 C         0.623118         1.819285         1.942595
 C         0.379686         0.870446         3.205894
 C        -0.378342         0.094239         2.238579
 C        -1.384037         0.942165         1.340749
 C        -0.575488         0.372352         0.138721
 C         0.598188         0.450799         1.057007
 O         1.887997        -0.027385         0.537361
 C        -0.723837         2.305658         1.589272
 H         2.105249         2.787947         2.708811
 H         1.343586         0.363153         3.410903
 H        -0.015698         1.357318         4.145668
 H        -0.767653        -0.970219         2.592882
 H        -2.460181         0.900357         1.256206
 H        -0.785164        -0.769580         0.038526
 H        -0.546026         0.883592        -0.899146
 H         2.446781         0.722201         0.834712
 H        -0.614968         2.896368         0.690180
 H        -1.268212         2.848179         2.393260
