19
Iteration:  3737charge 0 multiplicity 1
 O         1.668149         2.765398         1.703846
 C         0.594723         1.914112         1.827630
 C         0.446376         1.041421         3.188886
 C        -0.294948         0.044279         2.290907
 C        -1.319064         0.847677         1.371167
 C        -0.546177         0.379248         0.068234
 C         0.593985         0.346897         1.072306
 O         1.833400        -0.229576         0.908817
 C        -0.747522         2.347436         1.447675
 H         2.330850         2.565924         2.378198
 H         1.521923         0.788940         3.424811
 H        -0.013594         1.565100         4.017455
 H        -0.671890        -0.880920         2.662750
 H        -2.418643         0.651661         1.360410
 H        -0.807991        -0.643092        -0.392166
 H        -0.499531         1.218031        -0.778847
 H         2.381399         0.450887         0.331305
 H        -0.812651         2.845244         0.445941
 H        -1.183312         3.197139         2.063575
