19
Iteration:  2400charge 0 multiplicity 1
 O         1.761634         2.649549         1.612167
 C         0.608513         1.800085         1.938704
 C         0.374165         0.998493         3.244139
 C        -0.336394         0.027792         2.291817
 C        -1.318028         0.882267         1.358805
 C        -0.466701         0.487391         0.015635
 C         0.588967         0.412166         1.161806
 O         1.850970        -0.131284         0.895469
 C        -0.787283         2.345719         1.519781
 H         1.609437         2.974663         0.694531
 H         1.292792         0.446176         3.598959
 H        -0.279804         1.410302         4.016530
 H        -0.459038        -0.984691         2.386756
 H        -2.401631         0.614315         1.474324
 H        -0.684505        -0.522177        -0.512296
 H        -0.584411         1.407543        -0.721840
 H         2.441153         0.528713         0.585633
 H        -0.708076         2.703468         0.455268
 H        -1.397951         3.067930         2.058272
