19
Iteration:   433
 O         1.572867         2.889656         1.626846
 C         0.755777         1.781619         1.963325
 C         0.499979         0.817614         3.224859
 C        -0.382900         0.079490         2.137678
 C        -1.308169         0.926014         1.233696
 C        -0.460749         0.584330        -0.019374
 C         0.626727         0.472731         1.041703
 O         1.809077        -0.177085         0.872218
 C        -0.788870         2.210785         1.790911
 H         2.484549         2.677536         1.900436
 H         1.271268         0.101330         3.474927
 H         0.151356         1.432632         4.084646
 H        -0.686172        -1.107955         2.259459
 H        -2.358011         0.917536         1.251673
 H        -0.772711        -0.428304        -0.215390
 H        -0.273656         1.258356        -0.775354
 H         1.585339        -0.735169         0.038438
 H        -0.981796         3.100363         1.250589
 H        -1.250125         2.314755         2.784197
