19
Iteration:  2324charge 0 multiplicity 1
 O         1.640096         2.793740         1.916454
 C         0.640240         1.830549         1.856776
 C         0.450748         1.091905         3.234388
 C        -0.304337         0.037608         2.267835
 C        -1.315958         0.844112         1.404252
 C        -0.560301         0.449408         0.087684
 C         0.639359         0.435843         1.036494
 O         1.790531        -0.290498         0.784791
 C        -0.691041         2.263328         1.365234
 H         1.775398         3.371762         1.153050
 H         1.347010         0.506149         3.553552
 H        -0.142229         1.672005         3.943011
 H        -0.601537        -0.865713         2.661613
 H        -2.414336         0.734507         1.564150
 H        -0.759881        -0.591419        -0.246002
 H        -0.435084         1.080543        -0.755540
 H         2.395284         0.311416         0.210055
 H        -0.652170         2.569628         0.257185
 H        -1.125149         3.109654         1.934805
