19
Iteration:  1283charge 0 multiplicity 1
 O         1.776916         2.652219         1.752168
 C         0.641802         1.820184         1.935500
 C         0.441919         1.043834         3.206352
 C        -0.336485         0.006413         2.265991
 C        -1.365903         0.853040         1.379662
 C        -0.485458         0.520809         0.002942
 C         0.627648         0.414778         1.111626
 O         1.839232        -0.110430         0.691637
 C        -0.837603         2.321608         1.559817
 H         2.100677         2.859916         2.642852
 H         1.292416         0.558830         3.752791
 H        -0.237798         1.450945         4.004640
 H        -0.576086        -0.999016         2.512238
 H        -2.485673         0.638159         1.269929
 H        -0.577255        -0.512723        -0.377615
 H        -0.467018         1.458930        -0.578372
 H         1.783384        -0.270183        -0.318810
 H        -1.000461         2.862494         0.617515
 H        -1.330739         2.906684         2.343994
