19
Iteration:  3817charge 0 multiplicity 1
 O         1.593068         2.706996         1.617551
 C         0.620305         1.826613         1.835103
 C         0.377300         1.094081         3.212812
 C        -0.383663         0.084591         2.354984
 C        -1.370407         0.856438         1.346395
 C        -0.523103         0.520664         0.014422
 C         0.716023         0.352676         1.063255
 O         1.983681        -0.278672         0.928546
 C        -0.818398         2.387818         1.521128
 H         2.460399         2.336631         1.833040
 H         1.232480         0.555496         3.623328
 H        -0.020656         1.811743         3.995313
 H        -0.601526        -0.901934         2.827162
 H        -2.403181         0.612471         1.554197
 H        -0.732768        -0.489513        -0.455030
 H        -0.458255         1.393618        -0.762469
 H         2.349837        -0.151904        -0.034826
 H        -0.730058         2.954589         0.652612
 H        -1.160763         2.939285         2.368027
