19
Iteration:  2825charge 0 multiplicity 1
 O         1.605214         2.802478         1.647504
 C         0.608564         1.832923         1.888848
 C         0.431325         1.062249         3.160037
 C        -0.333575         0.024372         2.290942
 C        -1.329225         0.923782         1.251975
 C        -0.502326         0.416187         0.078450
 C         0.631526         0.360563         1.121073
 O         1.853756        -0.230732         0.932425
 C        -0.741481         2.337973         1.560055
 H         2.470873         2.395761         1.876319
 H         1.386312         0.534757         3.191438
 H         0.055836         1.616252         4.030738
 H        -0.679594        -0.957326         2.398725
 H        -2.433779         0.837553         1.373577
 H        -0.666114        -0.667744        -0.189422
 H        -0.268442         1.073968        -0.768107
 H         2.166323        -0.016791        -0.039368
 H        -0.695814         3.120268         0.753176
 H        -1.279240         2.811332         2.398159
