19
Iteration:    68charge 0 multiplicity 1
 O         1.758781         2.792162         1.840932
 C         0.687800         1.817649         1.955693
 C         0.344680         0.897830         3.209788
 C        -0.272226        -0.012656         2.205923
 C        -1.288759         0.928173         1.314159
 C        -0.630153         0.343357         0.013426
 C         0.606357         0.430788         0.988800
 O         1.828015        -0.127767         0.674872
 C        -0.717576         2.375941         1.645984
 H         2.070241         3.042948         2.747316
 H         1.126942         0.487932         3.799859
 H        -0.419028         1.387318         3.834667
 H        -0.621423        -0.997929         2.309500
 H        -2.283909         0.766540         1.394422
 H        -0.940316        -0.649596        -0.121877
 H        -0.682582         0.855171        -0.970155
 H         2.182010         0.621803         0.051806
 H        -0.799171         3.039130         0.741707
 H        -1.192128         2.832816         2.465691
