19
Iteration:  4450
 O         1.799086         2.631351         1.450187
 C         0.650772         1.783318         1.823745
 C         0.397488         1.113652         3.136418
 C        -0.396219         0.098734         2.266744
 C        -1.385231         0.846600         1.284117
 C        -0.596028         0.386864         0.120070
 C         0.634430         0.377929         1.068711
 O         1.943171        -0.092651         1.124828
 C        -0.823562         2.287231         1.556716
 H         1.724197         3.369830         2.071401
 H         1.272162         0.630816         3.469862
 H        -0.104715         1.790378         3.818219
 H        -0.710349        -0.895175         2.537869
 H        -2.428272         0.605397         1.339205
 H        -0.845650        -0.730173        -0.277716
 H        -0.570967         1.017732        -0.771471
 H         2.630437         0.672929         1.010712
 H        -0.882350         2.725968         0.604712
 H        -1.150723         2.844200         2.430811
