19
Iteration:  4384charge 0 multiplicity 1
 O         1.739082         2.738318         1.671358
 C         0.693836         1.785762         1.787703
 C         0.327576         1.185907         3.248223
 C        -0.376132         0.199121         2.306027
 C        -1.363717         0.825520         1.349834
 C        -0.583431         0.281476         0.109917
 C         0.698796         0.424785         1.072949
 O         1.920340        -0.274660         0.866223
 C        -0.762609         2.284139         1.424658
 H         1.516476         3.411040         2.356120
 H         1.239283         0.846089         3.621393
 H        -0.226073         1.818295         3.914821
 H        -0.607998        -0.777815         2.744004
 H        -2.383627         0.679194         1.344638
 H        -0.785014        -0.816424        -0.185883
 H        -0.759413         0.888636        -0.752341
 H         2.417739         0.459895         0.495000
 H        -0.728836         2.828912         0.557115
 H        -1.253111         2.784428         2.223033
