19
Iteration:  4668
 O         1.540961         2.977287         1.734619
 C         0.662358         1.910543         1.764716
 C         0.391726         1.144600         3.103340
 C        -0.277206         0.093017         2.301025
 C        -1.238115         0.905752         1.366517
 C        -0.502370         0.281191         0.129648
 C         0.693938         0.287761         1.093554
 O         1.901274        -0.458208         0.982579
 C        -0.823912         2.377422         1.371423
 H         2.357889         2.803988         2.216101
 H         1.282795         0.643060         3.531090
 H        -0.112555         1.828487         3.962435
 H        -0.709790        -0.806128         2.771981
 H        -2.416206         0.789062         1.540663
 H        -1.252172        -0.581128        -0.264005
 H        -0.498519         0.840362        -0.852297
 H         2.208357        -0.492430         0.023975
 H        -0.961415         2.929529         0.446502
 H        -1.263835         3.125943         2.105195
