19
Iteration:  2107
 O         1.592081         2.835811         1.744601
 C         0.632578         1.865948         1.909040
 C         0.534477         1.032353         3.112240
 C        -0.343569        -0.014098         2.147450
 C        -1.300640         0.952876         1.280575
 C        -0.425883         0.585759        -0.028970
 C         0.660706         0.420041         1.054015
 O         1.771103        -0.460706         0.940635
 C        -0.803946         2.286462         1.733841
 H         1.269098         3.552355         1.168047
 H         1.345024         0.380321         3.428334
 H         0.305554         1.536100         4.033298
 H        -0.527688        -1.033558         2.405815
 H        -2.379498         0.649176         1.274641
 H        -0.805268        -0.443848        -0.352785
 H        -0.224911         1.363299        -0.865676
 H         2.543138         0.037154         0.433683
 H        -0.944950         3.008422         0.936765
 H        -1.254814         2.778837         2.597787
