19
Iteration:     3charge 0 multiplicity 1
 O         1.755163         2.618885         1.724782
 C         0.638109         1.808457         1.902662
 C         0.424636         0.911567         3.169816
 C        -0.335378         0.012840         2.191044
 C        -1.373125         0.879256         1.334222
 C        -0.565861         0.507540         0.047110
 C         0.589961         0.459504         1.045880
 O         1.858760        -0.066149         0.759539
 C        -0.790601         2.306357         1.638774
 H         1.977699         3.053914         2.557877
 H         1.409221         0.491526         3.424559
 H        -0.070127         1.395287         4.050027
 H        -0.569914        -0.993057         2.415906
 H        -2.339069         0.730211         1.388688
 H        -0.764159        -0.458582        -0.363707
 H        -0.522051         1.258180        -0.778047
 H         2.533715         0.668662         0.872121
 H        -0.762659         2.974482         0.732452
 H        -1.185976         2.793402         2.503616
