19
Iteration:  4622charge 0 multiplicity 1
 O         1.679167         2.818441         1.584836
 C         0.627732         1.861535         1.785540
 C         0.423638         1.114098         3.213877
 C        -0.348756         0.125145         2.318039
 C        -1.300607         0.821739         1.287704
 C        -0.475848         0.320132         0.079093
 C         0.608795         0.385038         1.120058
 O         1.812522        -0.228970         1.010002
 C        -0.795255         2.280473         1.419046
 H         2.467560         2.376356         1.948204
 H         1.370923         0.882180         3.774550
 H        -0.222925         1.557260         4.082096
 H        -0.637853        -0.895287         2.705163
 H        -2.369105         0.776075         1.589207
 H        -0.635840        -0.754879        -0.120516
 H        -0.481738         0.937355        -0.826909
 H         2.491942         0.348229         0.508665
 H        -0.909886         2.843322         0.487047
 H        -1.236892         2.990549         2.166635
