19
Iteration:  3731charge 0 multiplicity 1
 O         1.679612         2.799449         1.649615
 C         0.596655         1.877561         1.821579
 C         0.491973         1.083643         3.279328
 C        -0.304645         0.058057         2.272360
 C        -1.356860         0.852089         1.319710
 C        -0.502920         0.388981         0.059771
 C         0.596850         0.332186         1.073833
 O         1.775708        -0.213497         0.903278
 C        -0.759176         2.305144         1.481237
 H         2.165716         2.606932         2.496882
 H         1.460941         0.675663         3.539171
 H        -0.038948         1.562514         4.142038
 H        -0.528557        -1.030704         2.557220
 H        -2.415821         0.685182         1.398389
 H        -0.804113        -0.421218        -0.545771
 H        -0.333162         1.128635        -0.620794
 H         2.484422         0.196867         0.375433
 H        -0.685892         2.788022         0.496085
 H        -1.155365         3.050230         2.134832
