19
Iteration:  1249charge 0 multiplicity 1
 O         1.813512         2.625965         1.957269
 C         0.685663         1.855520         1.901636
 C         0.401011         1.023560         3.170282
 C        -0.323520         0.056619         2.189032
 C        -1.336612         0.878000         1.415039
 C        -0.647632         0.302955         0.121110
 C         0.604955         0.494813         0.998605
 O         1.891354        -0.133512         0.621924
 C        -0.788791         2.401450         1.512565
 H         1.606843         3.225374         2.691454
 H         1.330105         0.657900         3.591637
 H        -0.381057         1.445918         3.830837
 H        -0.529993        -0.907570         2.381929
 H        -2.402190         0.783705         1.479321
 H        -0.664474        -0.760423        -0.091651
 H        -0.763453         0.671047        -0.924216
 H         2.005393         0.285072        -0.285474
 H        -0.876508         2.950656         0.553034
 H        -1.148953         3.001202         2.323790
