19
Iteration:  2303charge 0 multiplicity 1
 O         1.627984         2.918041         1.975077
 C         0.671649         1.904597         1.857391
 C         0.455162         1.113831         3.139003
 C        -0.293190         0.076025         2.285232
 C        -1.288918         0.909279         1.276292
 C        -0.513217         0.363871         0.087592
 C         0.645975         0.267106         1.077582
 O         1.829221        -0.453921         0.738930
 C        -0.803954         2.360991         1.506118
 H         1.552477         3.547604         1.226658
 H         1.414789         0.618588         3.430161
 H        -0.118952         1.722885         3.862684
 H        -0.497679        -0.876360         2.615784
 H        -2.404657         0.793549         1.365934
 H        -0.713534        -0.644447        -0.288266
 H        -0.505443         1.048829        -0.659919
 H         2.141114        -0.138486        -0.148160
 H        -0.823147         3.022338         0.578706
 H        -1.255864         2.913285         2.369187
