19
Iteration:  1061
 O         1.674302         2.767974         1.800019
 C         0.650567         1.801875         1.969770
 C         0.425117         0.905589         3.232753
 C        -0.344082         0.002532         2.284675
 C        -1.299259         0.959955         1.311711
 C        -0.503199         0.602264         0.048835
 C         0.608066         0.381745         1.044642
 O         1.804720        -0.256188         0.628260
 C        -0.735886         2.283794         1.593595
 H         1.456163         3.304853         1.018352
 H         1.409220         0.404390         3.555021
 H        -0.117028         1.357824         4.188118
 H        -0.545466        -1.089357         2.533305
 H        -2.441362         0.801383         1.422522
 H        -0.730977        -0.350063        -0.512232
 H        -0.404387         1.344811        -0.805587
 H         2.579020         0.204240         1.109292
 H        -0.816310         3.133208         0.816628
 H        -1.085932         2.830358         2.503096
