19
Iteration:  1875charge 0 multiplicity 1
 O         1.875578         2.518947         1.947404
 C         0.620754         1.812919         1.943236
 C         0.387077         1.079459         3.181552
 C        -0.276106         0.073940         2.331322
 C        -1.379968         0.860697         1.339931
 C        -0.541966         0.383865         0.084486
 C         0.547284         0.412422         1.079088
 O         1.880471         0.112750         0.626973
 C        -0.858555         2.298413         1.427254
 H         2.024011         2.966111         1.099470
 H         1.248281         0.644732         3.696059
 H        -0.263425         1.542029         3.923595
 H        -0.523543        -0.985829         2.604155
 H        -2.387686         0.717196         1.508104
 H        -0.757818        -0.685894        -0.253215
 H        -0.570853         1.052260        -0.777371
 H         1.959106        -0.873099         0.294643
 H        -0.961047         2.836173         0.448997
 H        -1.253207         3.015687         2.146070
