19
Iteration:  1907
 O         1.710941         2.689519         1.780935
 C         0.697136         1.785559         1.911362
 C         0.371556         0.964394         3.148464
 C        -0.404938         0.116131         2.224892
 C        -1.349225         0.953641         1.336285
 C        -0.505817         0.404779         0.078639
 C         0.598479         0.405339         1.034773
 O         1.981791        -0.037242         0.763938
 C        -0.811859         2.305046         1.654088
 H         1.781103         2.859818         0.821407
 H         1.170050         0.324885         3.563854
 H        -0.174933         1.505576         3.959973
 H        -0.636204        -0.954908         2.429884
 H        -2.352267         0.747106         1.447887
 H        -0.792081        -0.747411        -0.010538
 H        -0.533052         1.036077        -0.857236
 H         1.917144        -0.862081         0.336299
 H        -0.903219         3.096943         0.843775
 H        -1.111274         2.739708         2.604040
