19
Iteration:  1317
 O         1.569983         2.832471         1.620210
 C         0.699219         1.790320         1.946519
 C         0.492296         0.834026         3.192043
 C        -0.360351        -0.013860         2.115500
 C        -1.346058         1.019234         1.276124
 C        -0.561375         0.533976         0.005286
 C         0.617468         0.400704         1.037856
 O         1.941852        -0.152117         0.982861
 C        -0.732525         2.350248         1.740996
 H         2.463994         2.527498         1.364671
 H         1.374568         0.189958         3.589110
 H        -0.128864         1.254012         4.030936
 H        -0.685300        -1.084440         2.270720
 H        -2.525936         1.062345         1.341062
 H        -0.904202        -0.458809        -0.390462
 H        -0.819196         1.028188        -0.942709
 H         1.911553        -0.795090         0.178629
 H        -0.801319         3.102790         0.967243
 H        -1.190778         2.714778         2.690266
