19
Iteration:   348charge 0 multiplicity 1
 O         1.746950         2.625538         1.945907
 C         0.611374         1.792017         1.968304
 C         0.303534         0.911221         3.270208
 C        -0.325231         0.022280         2.264456
 C        -1.333388         0.950538         1.315936
 C        -0.537714         0.344366         0.115013
 C         0.651719         0.404987         1.029378
 O         1.912975         0.092272         0.405581
 C        -0.774384         2.429192         1.572075
 H         2.512463         2.135160         1.584150
 H         1.217213         0.571999         3.732921
 H        -0.444806         1.403001         3.937415
 H        -0.876741        -0.883491         2.425328
 H        -2.352006         0.835202         1.400500
 H        -0.953220        -0.654545        -0.006725
 H        -0.572622         0.825432        -0.887952
 H         2.357688        -0.518835         0.929092
 H        -0.937379         3.112657         0.777573
 H        -1.071456         2.835616         2.566640
