19
Iteration:  2914charge 0 multiplicity 1
 O         1.789884         2.647616         1.756058
 C         0.610875         1.786083         1.889344
 C         0.355025         1.051451         3.242270
 C        -0.402474         0.041806         2.364928
 C        -1.362322         0.868502         1.352848
 C        -0.577099         0.419496         0.142982
 C         0.628383         0.344628         1.048806
 O         1.908042        -0.110815         0.673937
 C        -0.728351         2.314579         1.484787
 H         1.660407         3.473853         1.270455
 H         1.247189         0.676180         3.754409
 H        -0.278091         1.696651         3.920924
 H        -0.622571        -0.914466         2.841393
 H        -2.544425         0.744867         1.310352
 H        -0.834048        -0.555259        -0.349876
 H        -0.348269         1.104949        -0.740484
 H         2.452296         0.689415         0.732436
 H        -0.443759         2.792488         0.520553
 H        -1.156361         3.161043         2.064675
