19
Iteration:  2675charge 0 multiplicity 1
 O         1.662158         2.801785         1.613550
 C         0.632074         1.849403         1.847753
 C         0.453452         1.032984         3.219497
 C        -0.411688         0.063363         2.283358
 C        -1.366280         0.914375         1.302885
 C        -0.460142         0.433365         0.077628
 C         0.601125         0.341721         1.100704
 O         1.902089        -0.123942         0.899753
 C        -0.790300         2.266160         1.567999
 H         2.468011         2.562120         2.094613
 H         1.358522         0.513810         3.467432
 H         0.043088         1.464036         4.168530
 H        -0.556788        -1.000560         2.541315
 H        -2.507315         0.695920         1.157160
 H        -0.496967        -0.545609        -0.434540
 H        -0.403644         1.198277        -0.748561
 H         1.914393        -0.914224         0.213132
 H        -0.957024         2.877488         0.688982
 H        -1.207153         2.888041         2.357510
