19
Iteration:  2804
 O         1.672545         2.862549         1.722294
 C         0.700519         1.878215         1.921897
 C         0.412751         1.041640         3.296939
 C        -0.343923         0.167897         2.237050
 C        -1.311886         0.890941         1.266217
 C        -0.462614         0.332092         0.021712
 C         0.735900         0.437701         1.071356
 O         1.809344        -0.329587         0.836815
 C        -0.894530         2.318047         1.575402
 H         2.501853         2.544118         1.287624
 H         1.254351         0.539169         3.766580
 H        -0.381054         1.531646         3.859684
 H        -0.443833        -0.801521         2.568762
 H        -2.452884         0.710660         1.173332
 H        -0.571545        -0.756149        -0.027983
 H        -0.508073         0.876902        -0.883909
 H         1.757566        -0.413702        -0.065415
 H        -1.021451         3.045251         0.734365
 H        -1.293278         2.794576         2.475666
