19
Iteration:  3945
 O         1.785322         2.566357         1.622303
 C         0.591084         1.855365         1.846876
 C         0.380888         1.062310         3.155240
 C        -0.329048         0.075285         2.257465
 C        -1.330471         0.894128         1.363038
 C        -0.525820         0.304866         0.119158
 C         0.579347         0.431127         1.136101
 O         1.836042        -0.070651         0.841594
 C        -0.750594         2.347696         1.454636
 H         1.954692         3.208730         2.342214
 H         1.334099         0.629882         3.569661
 H        -0.154014         1.559501         3.946969
 H        -0.692529        -0.852622         2.555492
 H        -2.401353         0.689314         1.459749
 H        -0.672213        -0.755067        -0.004191
 H        -0.407701         0.713468        -0.840532
 H         2.412612         0.668743         1.252360
 H        -0.872430         2.939572         0.533425
 H        -1.242018         3.001874         2.276738
