19
Iteration:  1051charge 0 multiplicity 1
 O         1.648304         2.738048         1.740722
 C         0.661013         1.744186         1.878267
 C         0.509567         0.867239         3.207169
 C        -0.399413         0.033103         2.236923
 C        -1.362941         0.927494         1.314507
 C        -0.410011         0.607199         0.017544
 C         0.600930         0.416005         1.113229
 O         1.792293        -0.193512         0.700569
 C        -0.762198         2.313024         1.680685
 H         1.495142         3.256280         0.926119
 H         1.424619         0.251117         3.457596
 H         0.165267         1.394658         4.208424
 H        -0.709212        -0.981096         2.474863
 H        -2.490535         0.745932         1.238906
 H        -0.884647        -0.317934        -0.350250
 H        -0.250459         1.488138        -0.690435
 H         2.524889         0.164151         1.356232
 H        -0.611618         3.074656         0.827653
 H        -1.175064         2.697441         2.621591
