19
Iteration:  4620charge 0 multiplicity 1
 O         1.680573         2.802575         1.577922
 C         0.614740         1.860650         1.773341
 C         0.408307         1.119648         3.223183
 C        -0.351709         0.119217         2.311167
 C        -1.333715         0.827783         1.290769
 C        -0.477714         0.320955         0.100642
 C         0.635805         0.381445         1.121830
 O         1.841221        -0.225248         1.007056
 C        -0.805086         2.290897         1.422590
 H         2.467556         2.325806         1.933782
 H         1.419719         0.842137         3.713970
 H        -0.253216         1.566739         4.039900
 H        -0.637217        -0.891262         2.697549
 H        -2.304912         0.819521         1.615877
 H        -0.673105        -0.644514        -0.188812
 H        -0.481123         0.926600        -0.787386
 H         2.517554         0.346607         0.551425
 H        -0.900183         2.836610         0.447713
 H        -1.211998         2.977514         2.206334
