19
Iteration:  4411charge 0 multiplicity 1
 O         1.740145         2.594031         1.487620
 C         0.596790         1.820187         1.863195
 C         0.371142         1.104359         3.204140
 C        -0.373178         0.066109         2.317979
 C        -1.298904         0.886145         1.341833
 C        -0.423292         0.341424         0.117428
 C         0.610408         0.377394         1.202280
 O         1.881377        -0.140164         0.917643
 C        -0.836293         2.373597         1.472914
 H         1.846894         3.419460         1.994535
 H         1.405775         0.752609         3.557188
 H        -0.222079         1.671495         3.969791
 H        -0.639265        -0.878880         2.791160
 H        -2.421805         0.681722         1.198382
 H        -0.719401        -0.616846        -0.192066
 H        -0.395420         0.923359        -0.829140
 H         2.209961         0.745128         0.745166
 H        -0.612388         2.860112         0.448350
 H        -1.568466         2.927963         2.107881
