19
Iteration:  3713charge 0 multiplicity 1
 O         1.638143         2.792002         1.550238
 C         0.718281         1.804069         1.923175
 C         0.452192         1.057233         3.206310
 C        -0.341228         0.099144         2.284275
 C        -1.349412         0.868427         1.250506
 C        -0.484285         0.506240         0.042236
 C         0.647734         0.470653         1.135980
 O         1.808236        -0.352483         0.919998
 C        -0.811153         2.229352         1.563917
 H         2.194019         3.203737         2.253574
 H         1.321798         0.534430         3.626844
 H        -0.051386         1.737958         3.929335
 H        -0.547324        -0.959665         2.610430
 H        -2.430598         0.713793         1.200683
 H        -0.544161        -0.582036        -0.220170
 H        -0.483168         1.214581        -0.896638
 H         2.303799         0.307131         0.368698
 H        -0.950761         3.068875         0.782965
 H        -1.358205         2.689764         2.455123
