19
Iteration:  4984
 O         1.656681         2.870294         1.680996
 C         0.659260         1.876915         1.797504
 C         0.407392         1.134860         3.249848
 C        -0.318198         0.095723         2.331860
 C        -1.339204         0.870660         1.297691
 C        -0.573291         0.258120         0.116534
 C         0.697588         0.397820         1.086219
 O         1.850820        -0.279323         0.976605
 C        -0.816741         2.275808         1.352684
 H         2.511430         2.428898         1.848183
 H         1.291223         0.645916         3.460156
 H        -0.099315         1.657104         4.021733
 H        -0.460897        -0.909722         2.480926
 H        -2.405291         0.730566         1.454581
 H        -1.009019        -0.666768        -0.256404
 H        -0.404799         1.010116        -0.797689
 H         2.459473         0.373768         0.676604
 H        -0.758337         2.669254         0.343067
 H        -1.266486         3.077430         1.979640
