19
Iteration:  4276
 O         1.796472         2.477129         1.471984
 C         0.649161         1.830522         1.893393
 C         0.400419         1.091573         3.237673
 C        -0.369676         0.111175         2.293381
 C        -1.394540         0.800651         1.255418
 C        -0.607128         0.391295         0.045885
 C         0.587751         0.489053         1.154661
 O         1.895090        -0.015630         1.023284
 C        -0.793967         2.280355         1.465405
 H         2.098176         2.993096         2.257180
 H         1.288798         0.553456         3.558804
 H         0.086155         1.795585         4.095035
 H        -0.469815        -0.914365         2.612475
 H        -2.422520         0.718916         1.387389
 H        -0.609173        -0.698321        -0.311516
 H        -0.516940         1.082338        -0.838243
 H         2.497151         0.733633         0.894302
 H        -0.814694         2.884841         0.529281
 H        -1.283919         2.913021         2.250696
