19
Iteration:  2542charge 0 multiplicity 1
 O         1.739495         2.459523         1.579068
 C         0.587842         1.794531         1.859944
 C         0.508569         1.034465         3.187368
 C        -0.357979        -0.011159         2.279940
 C        -1.365640         0.879925         1.327307
 C        -0.541712         0.487327         0.148404
 C         0.606456         0.477259         1.051327
 O         1.870488         0.007735         0.977959
 C        -0.825336         2.299323         1.469343
 H         1.621597         3.423227         1.498898
 H         1.344880         0.363483         3.363781
 H         0.300482         1.613566         4.064616
 H        -0.550369        -0.954871         2.581029
 H        -2.476989         0.664987         1.325551
 H        -0.697509        -0.471919        -0.373120
 H        -0.563691         1.174783        -0.708222
 H         2.555907         0.683191         1.155568
 H        -0.808695         2.954794         0.605406
 H        -1.247844         2.912210         2.205916
