19
Iteration:  2093
 O         1.601252         2.797995         1.732534
 C         0.641242         1.792140         1.858833
 C         0.549221         0.911846         3.173651
 C        -0.303004         0.074392         2.222457
 C        -1.358482         0.881563         1.295262
 C        -0.467760         0.696654         0.035996
 C         0.627281         0.402427         1.042528
 O         1.829438        -0.373400         1.003206
 C        -0.801440         2.274424         1.601002
 H         1.253272         3.315716         0.983500
 H         1.672113         0.630474         3.243574
 H        -0.055297         1.318306         4.012788
 H        -0.529318        -1.036325         2.427558
 H        -2.401403         0.871023         1.265607
 H        -0.750769        -0.109558        -0.764178
 H        -0.377846         1.617396        -0.581701
 H         2.278392        -0.156212         0.229650
 H        -0.819993         2.986756         0.696744
 H        -1.220641         2.747787         2.488053
