19
Iteration:  4223charge 0 multiplicity 1
 O         1.760633         2.784918         1.673653
 C         0.634356         1.849543         1.908149
 C         0.386201         1.133481         3.312011
 C        -0.302771         0.165645         2.282935
 C        -1.332113         0.842684         1.274372
 C        -0.541213         0.312344         0.139143
 C         0.658313         0.476900         1.056241
 O         1.772196        -0.311009         0.782641
 C        -0.777642         2.229698         1.405882
 H         1.609117         3.304044         2.499756
 H         1.314382         0.869714         3.800130
 H        -0.317202         1.753579         3.886507
 H        -0.488789        -0.821214         2.583622
 H        -2.377330         0.883985         1.267880
 H        -0.591656        -0.736741        -0.038884
 H        -0.559495         0.669366        -0.899018
 H         2.669891         0.100173         1.020413
 H        -0.573135         2.757856         0.398036
 H        -1.329034         2.897700         2.143358
