19
Iteration:  2168charge 0 multiplicity 1
 O         1.740466         2.552942         1.949080
 C         0.622788         1.838940         1.839744
 C         0.357669         1.050485         3.172799
 C        -0.266589         0.003955         2.361811
 C        -1.351961         0.934863         1.400407
 C        -0.595235         0.387756         0.091187
 C         0.615462         0.390582         1.093361
 O         1.876384        -0.001795         0.624377
 C        -0.772976         2.292030         1.344836
 H         2.028285         3.122768         1.204059
 H         1.328671         0.638392         3.670235
 H        -0.252220         1.638783         3.922674
 H        -0.677843        -1.010196         2.795531
 H        -2.403011         0.852551         1.565449
 H        -0.999695        -0.565232        -0.251330
 H        -0.391281         0.993808        -0.721919
 H         2.621401         0.472848         1.147547
 H        -0.680347         2.668848         0.264751
 H        -1.168942         2.970700         2.093858
