19
Iteration:   915
 O         1.701260         2.758873         1.777335
 C         0.596734         1.840668         1.956026
 C         0.449998         0.955457         3.145336
 C        -0.226724         0.002379         2.189734
 C        -1.311816         0.873843         1.349061
 C        -0.546890         0.604750         0.005006
 C         0.612740         0.461246         1.012941
 O         1.795970        -0.208374         0.698328
 C        -0.796090         2.281592         1.632504
 H         2.310344         2.774406         2.541904
 H         1.438057         0.536034         3.413566
 H         0.015459         1.276867         4.052444
 H        -0.535681        -1.029785         2.356873
 H        -2.301510         0.693777         1.319536
 H        -0.935497        -0.263930        -0.463087
 H        -0.658123         1.431813        -0.588692
 H         1.993204        -0.772065         1.533859
 H        -0.897448         2.857494         0.758336
 H        -1.136366         2.843264         2.479706
