19
Iteration:  3900charge 0 multiplicity 1
 O         1.691425         2.792859         1.766351
 C         0.689181         1.818680         1.776295
 C         0.347589         1.185026         3.132523
 C        -0.380915         0.076232         2.338647
 C        -1.339088         0.874679         1.395417
 C        -0.521471         0.329569         0.090181
 C         0.633100         0.327652         1.047106
 O         1.833342        -0.219016         0.794523
 C        -0.696985         2.247002         1.499584
 H         2.209258         2.696162         2.611380
 H         1.259831         0.843494         3.727036
 H        -0.281013         1.701725         3.824262
 H        -0.512880        -0.896868         2.641079
 H        -2.448068         0.880628         1.454255
 H        -0.891473        -0.599222        -0.327887
 H        -0.436707         0.977953        -0.726301
 H         2.423354         0.421162         0.264488
 H        -0.861708         2.773666         0.529018
 H        -1.050684         3.098227         2.183885
