19
Iteration:  3720
 O         1.666094         2.818577         1.573335
 C         0.680784         1.754923         1.903435
 C         0.500162         1.109297         3.255708
 C        -0.316265         0.084174         2.291801
 C        -1.368293         0.879358         1.253518
 C        -0.478046         0.465808         0.029565
 C         0.592657         0.450883         1.122381
 O         1.788409        -0.312609         0.914748
 C        -0.815766         2.242007         1.516423
 H         2.168259         3.021205         2.389755
 H         1.267147         0.490885         3.686060
 H        -0.050684         1.617496         4.080905
 H        -0.416250        -1.035630         2.460542
 H        -2.433772         0.746235         1.352969
 H        -0.706463        -0.501916        -0.356916
 H        -0.297136         1.195881        -0.658194
 H         2.340320         0.356874         0.309301
 H        -0.782457         2.889008         0.614018
 H        -1.324243         2.673678         2.349124
