19
Iteration:  3364charge 0 multiplicity 1
 O         1.708734         2.754366         1.702971
 C         0.692815         1.804159         1.836550
 C         0.568637         0.958373         3.159929
 C        -0.398895         0.041830         2.279201
 C        -1.412873         0.956553         1.270410
 C        -0.488160         0.470348         0.022402
 C         0.580310         0.452010         1.143214
 O         1.793270        -0.256329         0.931974
 C        -0.783743         2.272033         1.537496
 H         1.217398         3.398623         1.175023
 H         1.546062         0.435530         3.243135
 H         0.340090         1.487935         4.174990
 H        -0.722894        -0.873054         2.811053
 H        -2.438797         0.885996         1.325128
 H        -0.714679        -0.517562        -0.264565
 H        -0.258966         1.069405        -0.823977
 H         2.531017         0.271704         1.038862
 H        -0.938701         2.697018         0.532622
 H        -1.107231         3.095130         2.157251
