19
Iteration:  1838
 O         1.714718         2.751551         1.938264
 C         0.702166         1.786852         1.922837
 C         0.433485         0.990864         3.190303
 C        -0.305709         0.050614         2.205078
 C        -1.390425         0.955328         1.322600
 C        -0.688087         0.349648         0.051086
 C         0.660993         0.390334         1.014299
 O         1.909263        -0.018135         0.723962
 C        -0.725290         2.305849         1.543826
 H         1.983464         2.677708         1.006550
 H         1.294778         0.489311         3.662723
 H        -0.204028         1.542481         3.960120
 H        -0.514595        -0.908705         2.620332
 H        -2.543577         0.902370         1.387469
 H        -0.889477        -0.819523         0.017272
 H        -0.789373         0.872038        -0.998912
 H         1.967130        -0.912228         0.268024
 H        -0.743855         2.958199         0.639870
 H        -1.197822         2.912062         2.363175
