19
Iteration:  1475charge 0 multiplicity 1
 O         1.668838         2.746800         1.582500
 C         0.684352         1.799448         1.948652
 C         0.414192         0.915968         3.253549
 C        -0.351976         0.056063         2.202697
 C        -1.335594         0.873379         1.252322
 C        -0.486556         0.616370        -0.013491
 C         0.630083         0.411947         1.047997
 O         1.864320        -0.225035         0.980929
 C        -0.801984         2.319534         1.758858
 H         1.578936         3.059774         0.659551
 H         1.223039         0.296540         3.591809
 H        -0.037499         1.452070         4.114668
 H        -0.572750        -0.974790         2.447750
 H        -2.376612         0.823462         1.057091
 H        -0.646403        -0.224388        -0.636914
 H        -0.319934         1.376424        -0.690564
 H         2.036543        -0.508632         0.021405
 H        -0.760331         2.994955         0.856539
 H        -1.099780         2.832973         2.683709
