19
Iteration:   714
 O         1.737485         2.615994         1.731363
 C         0.605081         1.826270         1.923668
 C         0.452340         0.903418         3.186143
 C        -0.259684        -0.002717         2.156542
 C        -1.345745         0.929869         1.313123
 C        -0.612963         0.518801         0.029991
 C         0.556626         0.496171         1.043889
 O         1.870891        -0.138105         0.854686
 C        -0.735395         2.356107         1.684061
 H         1.838077         3.005868         0.836669
 H         1.430665         0.523250         3.410389
 H         0.079471         1.354316         4.142639
 H        -0.677876        -1.062334         2.286501
 H        -2.494280         0.555123         1.371595
 H        -0.909851        -0.506285        -0.226984
 H        -0.570907         1.126315        -0.837359
 H         2.471152         0.535263         0.571542
 H        -0.941506         3.170672         0.945927
 H        -1.294381         2.703093         2.593558
