19
Iteration:  3303
 O         1.750071         2.693368         1.856211
 C         0.650676         1.818635         1.868469
 C         0.339333         1.140816         3.223256
 C        -0.287031         0.084822         2.252304
 C        -1.319513         0.836195         1.309294
 C        -0.588209         0.372501         0.139280
 C         0.690224         0.465228         1.083314
 O         1.801865        -0.263253         0.767353
 C        -0.740149         2.341444         1.476388
 H         1.909979         3.064857         0.980800
 H         1.293553         0.804542         3.688728
 H        -0.262552         1.685070         3.952233
 H        -0.533273        -0.943215         2.471282
 H        -2.470987         0.653381         1.376231
 H        -0.868386        -0.674902        -0.224229
 H        -0.575776         1.112244        -0.752895
 H         2.314306         0.285767         0.132749
 H        -0.891358         2.727881         0.462761
 H        -1.102764         3.069994         2.233912
