19
Iteration:  3818charge 0 multiplicity 1
 O         1.592537         2.717140         1.613177
 C         0.620161         1.831031         1.837976
 C         0.373032         1.089741         3.210879
 C        -0.376590         0.086015         2.349489
 C        -1.363700         0.859784         1.342727
 C        -0.521729         0.519716         0.013034
 C         0.710945         0.350421         1.058312
 O         1.979614        -0.280759         0.937243
 C        -0.816747         2.379968         1.534950
 H         2.464195         2.315798         1.828697
 H         1.215967         0.552959         3.607569
 H         0.001900         1.866015         3.970902
 H        -0.617567        -0.939151         2.835316
 H        -2.396584         0.638811         1.562683
 H        -0.769000        -0.457537        -0.478155
 H        -0.442345         1.349199        -0.764262
 H         2.346457        -0.152211        -0.042840
 H        -0.715244         2.944694         0.650634
 H        -1.166458         2.887924         2.370928
