19
Iteration:  3464
 O         1.806644         2.713953         1.802021
 C         0.684364         1.792279         1.828262
 C         0.316778         1.058997         3.137563
 C        -0.353667         0.089385         2.253375
 C        -1.357144         0.907835         1.387263
 C        -0.699166         0.264089         0.128706
 C         0.684024         0.396285         1.071181
 O         1.867339        -0.106293         0.747759
 C        -0.691478         2.304356         1.475140
 H         1.564743         3.517004         1.328797
 H         1.261308         0.627176         3.640009
 H        -0.237933         1.557096         4.001506
 H        -0.679120        -0.929946         2.496484
 H        -2.461690         1.004270         1.528246
 H        -0.853500        -0.805631         0.013211
 H        -0.812871         0.769517        -0.806093
 H         2.575179         0.259056         1.226879
 H        -0.597328         2.957849         0.581830
 H        -0.957453         2.947292         2.325764
