19
Iteration:  3311charge 0 multiplicity 1
 O         1.776126         2.692821         1.844438
 C         0.641657         1.930735         1.857548
 C         0.307996         1.115505         3.192586
 C        -0.247443         0.036260         2.214460
 C        -1.327697         0.891229         1.336410
 C        -0.579057         0.366044         0.175842
 C         0.623056         0.456528         1.066435
 O         1.854276        -0.305447         0.780118
 C        -0.764637         2.337108         1.483690
 H         1.789335         3.101190         0.960621
 H         1.214518         0.819075         3.711040
 H        -0.398615         1.547749         3.791430
 H        -0.456436        -1.001222         2.507079
 H        -2.382564         0.685835         1.266838
 H        -0.846482        -0.652382        -0.055539
 H        -0.810237         1.097720        -0.601876
 H         2.408047         0.128965         0.149273
 H        -0.634729         2.964074         0.545209
 H        -1.225819         2.894022         2.333636
