19
Iteration:  1312
 O         1.577499         2.820668         1.595753
 C         0.679153         1.792683         1.944115
 C         0.453522         0.853319         3.177875
 C        -0.372120         0.000915         2.136746
 C        -1.332352         1.024122         1.311489
 C        -0.582435         0.522579         0.015577
 C         0.637532         0.425661         1.060186
 O         1.953073        -0.163456         0.937719
 C        -0.708592         2.307848         1.745621
 H         2.516323         2.514404         1.711848
 H         1.216301         0.328631         3.639887
 H        -0.210609         1.139045         3.982714
 H        -0.636081        -1.028928         2.219733
 H        -2.357390         1.051998         1.243299
 H        -0.888273        -0.493754        -0.291797
 H        -0.734435         1.160223        -0.944667
 H         1.926016        -0.659201         0.143134
 H        -0.826898         3.079518         0.940545
 H        -1.203133         2.667926         2.638607
