19
Iteration:  4487
 O         1.671664         2.719663         1.604915
 C         0.596865         1.864106         1.860766
 C         0.434423         1.179907         3.205667
 C        -0.303693         0.091773         2.269543
 C        -1.347911         0.868857         1.262449
 C        -0.489227         0.324381         0.175419
 C         0.688269         0.493302         1.146689
 O         1.828815        -0.343226         0.906420
 C        -0.820545         2.302614         1.440281
 H         1.848893         3.457908         2.224333
 H         1.397806         0.715483         3.660881
 H         0.009041         1.624708         4.151197
 H        -0.663067        -0.883210         2.641102
 H        -2.443697         0.480189         1.236677
 H        -0.778443        -0.735153         0.097671
 H        -0.400581         0.901005        -0.796657
 H         2.523064         0.284000         0.475569
 H        -0.616798         2.874827         0.429833
 H        -1.399772         3.139806         1.881021
