19
Iteration:  2358charge 0 multiplicity 1
 O         1.834875         2.577706         1.703468
 C         0.608990         1.889011         1.791826
 C         0.347603         1.027003         3.152508
 C        -0.397031         0.068179         2.222480
 C        -1.354297         0.891504         1.304597
 C        -0.555732         0.293025         0.053884
 C         0.584143         0.398405         1.037690
 O         1.945024        -0.048544         0.879013
 C        -0.826869         2.362971         1.645866
 H         1.905614         3.334879         1.098378
 H         1.210114         0.456932         3.560090
 H         0.046282         1.565813         4.085311
 H        -0.695152        -0.843966         2.553867
 H        -2.482804         0.844294         1.416858
 H        -0.743347        -0.799979         0.066680
 H        -0.453234         0.636876        -0.926907
 H         2.594788         0.586810         1.391092
 H        -0.992945         3.142184         0.819217
 H        -1.161229         2.833188         2.618541
