19
Iteration:  1602
 O         1.791195         2.648336         1.731390
 C         0.657559         1.797934         1.893097
 C         0.368353         0.958515         3.171382
 C        -0.372568         0.026519         2.140701
 C        -1.387611         0.930972         1.351414
 C        -0.507775         0.474463         0.057964
 C         0.640788         0.445720         1.032741
 O         1.914017        -0.062593         0.791479
 C        -0.743598         2.308536         1.678853
 H         1.431967         3.542961         1.834174
 H         1.222010         0.453071         3.551338
 H        -0.220147         1.449478         3.969738
 H        -0.752414        -1.020018         2.217741
 H        -2.399301         0.836979         1.531596
 H        -0.767975        -0.578812        -0.148618
 H        -0.598793         1.194918        -0.794907
 H         1.645946        -1.017420         0.664247
 H        -0.935932         2.996663         0.892021
 H        -1.170980         2.851412         2.514279
