19
Iteration:  2528charge 0 multiplicity 1
 O         1.798187         2.524577         1.640203
 C         0.567492         1.825686         1.871050
 C         0.450481         1.010849         3.172749
 C        -0.344719         0.140954         2.297685
 C        -1.341220         0.863153         1.332869
 C        -0.500828         0.462891         0.048772
 C         0.615250         0.444175         1.158946
 O         1.908557        -0.114675         0.908768
 C        -0.897407         2.320043         1.517536
 H         1.577357         3.340709         1.170278
 H         1.516106         0.668123         3.293531
 H         0.024369         1.342189         4.132142
 H        -0.628317        -0.957231         2.513383
 H        -2.429075         0.678667         1.407115
 H        -0.789517        -0.524965        -0.266154
 H        -0.412845         1.156792        -0.729486
 H         2.352988         0.673395         0.490800
 H        -1.097814         2.835388         0.559727
 H        -1.418907         2.796756         2.370647
