19
Iteration:  1110charge 0 multiplicity 1
 O         1.804015         2.651790         2.160482
 C         0.644564         1.896658         1.899292
 C         0.517667         1.027080         3.112732
 C        -0.298508         0.081410         2.207065
 C        -1.338217         0.875472         1.328379
 C        -0.665266         0.279998         0.079589
 C         0.596918         0.457605         0.999565
 O         1.781242        -0.145180         0.632608
 C        -0.773377         2.327640         1.472004
 H         2.000443         3.422837         1.591733
 H         1.510377         0.583013         3.241412
 H         0.042792         1.573354         3.942453
 H        -0.629986        -0.963409         2.520401
 H        -2.415690         0.771909         1.404096
 H        -1.042606        -0.728657        -0.132071
 H        -0.897863         0.862645        -0.818595
 H         2.292037         0.479260         0.141065
 H        -0.558561         2.929798         0.575373
 H        -1.283681         2.996423         2.187649
