19
Iteration:   599
 O         1.604096         2.750128         1.816458
 C         0.671468         1.796538         1.898996
 C         0.548198         0.828889         3.102708
 C        -0.385133         0.007114         2.180672
 C        -1.322340         0.970435         1.313014
 C        -0.560560         0.511882         0.002076
 C         0.574980         0.430330         1.031045
 O         1.852527        -0.210387         0.859415
 C        -0.702768         2.361343         1.719198
 H         1.567227         3.084374         0.884274
 H         1.551803         0.406833         3.157936
 H         0.287936         1.230747         4.087214
 H        -0.666777        -1.028762         2.414800
 H        -2.347819         0.941672         1.289006
 H        -0.901681        -0.456074        -0.377364
 H        -0.508149         1.272769        -0.799257
 H         2.306887         0.513889         0.488913
 H        -0.738855         3.154681         0.979921
 H        -1.160451         2.749812         2.612192
