19
Iteration:    35
 O         1.789669         2.565606         1.832116
 C         0.657917         1.788287         1.871377
 C         0.400323         0.958777         3.213035
 C        -0.366079         0.046135         2.270487
 C        -1.315663         0.895544         1.371360
 C        -0.569722         0.467047         0.092672
 C         0.630782         0.471949         1.047316
 O         1.869582         0.032775         0.584161
 C        -0.878747         2.274724         1.512597
 H         2.291841         2.388982         2.638527
 H         1.298414         0.532163         3.618935
 H        -0.100176         1.544152         4.006147
 H        -0.734804        -0.885967         2.578769
 H        -2.307479         0.727403         1.363545
 H        -0.826532        -0.528874        -0.128869
 H        -0.585225         1.139079        -0.790097
 H         2.579320         0.347830         1.136849
 H        -0.958734         2.887159         0.579982
 H        -1.324712         2.835682         2.291898
