19
Iteration:  1040charge 0 multiplicity 1
 O         1.676128         2.671632         1.693025
 C         0.667859         1.749370         1.919197
 C         0.577646         0.882114         3.116105
 C        -0.445207         0.049715         2.171738
 C        -1.357266         0.950849         1.281709
 C        -0.464792         0.571465         0.068883
 C         0.608509         0.441782         1.046776
 O         1.813329        -0.128452         0.824174
 C        -0.790732         2.298940         1.793728
 H         1.442205         3.072064         0.831189
 H         1.430784         0.165386         3.243248
 H         0.218820         1.401909         4.106328
 H        -0.828148        -0.952501         2.346907
 H        -2.489154         0.782257         1.180502
 H        -0.568160        -0.321374        -0.590690
 H        -0.227808         1.372997        -0.729637
 H         2.538615         0.024418         1.491961
 H        -1.076568         2.997901         0.931646
 H        -1.240047         2.823029         2.652382
