19
Iteration:  1616charge 0 multiplicity 1
 O         1.738944         2.645832         1.707370
 C         0.655066         1.814497         1.881537
 C         0.396075         0.870028         3.153100
 C        -0.261619        -0.001526         2.149479
 C        -1.281662         0.953023         1.346647
 C        -0.683949         0.582970         0.034967
 C         0.630749         0.466662         0.989087
 O         1.931690        -0.141379         0.945271
 C        -0.809939         2.390041         1.669594
 H         1.452032         3.542034         1.460195
 H         1.321447         0.460855         3.580140
 H        -0.254189         1.290843         3.942609
 H        -0.427912        -1.064336         2.337721
 H        -2.311498         0.671682         1.262955
 H        -1.036592        -0.352215        -0.419730
 H        -0.609828         1.235596        -0.887025
 H         2.023036        -1.094320         0.642638
 H        -0.849036         3.032515         0.855195
 H        -1.179939         2.691674         2.609348
