19
Iteration:  4166charge 0 multiplicity 1
 O         1.681212         2.727560         1.580225
 C         0.630363         1.865613         1.860576
 C         0.459455         1.060148         3.198514
 C        -0.367056         0.132310         2.241276
 C        -1.361825         0.859674         1.283628
 C        -0.567734         0.299026         0.058379
 C         0.665845         0.426791         1.061325
 O         1.851564        -0.269499         0.954684
 C        -0.735935         2.388587         1.520992
 H         1.865094         3.148849         2.425353
 H         1.391722         0.671161         3.565408
 H        -0.034442         1.702108         3.999982
 H        -0.563903        -0.957549         2.523669
 H        -2.415307         0.694586         1.314384
 H        -0.808034        -0.780428        -0.059805
 H        -0.510712         0.875832        -0.860685
 H         2.450655         0.385442         1.241811
 H        -0.714417         3.092849         0.682147
 H        -1.279016         2.836772         2.417258
