19
Iteration:  2591
 O         1.663018         2.726888         1.638115
 C         0.628610         1.849473         1.907861
 C         0.389677         1.098721         3.184149
 C        -0.334967         0.088893         2.276613
 C        -1.372798         0.898977         1.305959
 C        -0.482322         0.365651         0.120259
 C         0.637513         0.466979         1.113669
 O         1.889552        -0.247111         0.787469
 C        -0.791014         2.299089         1.558845
 H         2.200642         2.623342         2.450882
 H         1.377837         0.807154         3.630784
 H        -0.239684         1.611760         3.967107
 H        -0.553844        -1.060582         2.503994
 H        -2.403921         0.621658         1.256205
 H        -0.647293        -0.711257        -0.105382
 H        -0.514484         0.792458        -0.971966
 H         2.511154         0.306890         0.331007
 H        -0.817764         2.952604         0.657345
 H        -1.268296         2.956267         2.373282
