19
Iteration:  3928
 O         1.821298         2.626996         1.648193
 C         0.603382         1.909525         1.902483
 C         0.335032         1.075440         3.331982
 C        -0.311672         0.097127         2.358931
 C        -1.369100         0.917031         1.278305
 C        -0.508449         0.241530         0.134795
 C         0.670378         0.489028         1.061744
 O         1.846389        -0.187396         0.728519
 C        -0.883009         2.374588         1.437302
 H         2.170262         2.920349         2.506427
 H         1.285112         0.754519         3.696614
 H        -0.282021         1.412634         4.233412
 H        -0.354691        -1.076984         2.437005
 H        -2.462946         0.844376         1.268285
 H        -0.795274        -0.867244         0.152660
 H        -0.528464         0.818954        -0.896726
 H         2.631710         0.358935         0.569787
 H        -0.766819         2.865380         0.444287
 H        -1.433771         3.072330         2.002215
