19
Iteration:  4168charge 0 multiplicity 1
 O         1.670238         2.729673         1.591365
 C         0.626186         1.852944         1.873640
 C         0.468396         1.075366         3.199470
 C        -0.361524         0.137568         2.246497
 C        -1.361299         0.866140         1.288754
 C        -0.569674         0.307797         0.049528
 C         0.657183         0.417172         1.063537
 O         1.865147        -0.286698         0.945423
 C        -0.750597         2.386172         1.506130
 H         1.867521         3.180383         2.418049
 H         1.388877         0.647772         3.577489
 H        -0.039252         1.697761         3.949407
 H        -0.517107        -0.901716         2.508745
 H        -2.405232         0.710033         1.310751
 H        -0.840214        -0.715662        -0.026029
 H        -0.508355         0.858728        -0.898298
 H         2.532329         0.352622         1.252225
 H        -0.725613         3.124167         0.638333
 H        -1.240612         2.823809         2.454877
