19
Iteration:   495charge 0 multiplicity 1
 O         1.781593         2.738437         1.964926
 C         0.676380         1.827992         1.910214
 C         0.421386         0.973077         3.194948
 C        -0.322981         0.000830         2.192980
 C        -1.337309         0.860601         1.352132
 C        -0.709819         0.308660         0.033456
 C         0.566363         0.515988         1.034054
 O         1.814390        -0.058799         0.599282
 C        -0.680683         2.346237         1.541613
 H         2.551439         2.221654         2.266808
 H         1.279079         0.470628         3.764614
 H        -0.020501         1.754245         3.842674
 H        -0.496864        -1.077634         2.388846
 H        -2.527793         0.715786         1.450171
 H        -0.806144        -0.861136        -0.018671
 H        -0.911084         0.806490        -1.033005
 H         2.515829         0.689931         0.738314
 H        -0.676948         2.978247         0.584777
 H        -1.220549         2.822705         2.386333
