19
Iteration:  2562
 O         1.793727         2.626268         1.485931
 C         0.660694         1.826679         1.884157
 C         0.375383         0.951407         3.192238
 C        -0.372698         0.066126         2.260736
 C        -1.366853         0.909733         1.367714
 C        -0.603068         0.354469         0.007633
 C         0.527740         0.393311         1.104545
 O         1.964244        -0.011380         0.946793
 C        -0.745930         2.310755         1.580919
 H         1.701127         3.308830         2.167607
 H         1.369769         0.627310         3.589296
 H        -0.218045         1.418443         3.959080
 H        -0.622364        -0.973161         2.428970
 H        -2.475710         0.715039         1.510123
 H        -0.946436        -0.653371        -0.251225
 H        -0.519157         0.924276        -0.849771
 H         2.566749         0.616465         1.225581
 H        -0.900275         2.924445         0.654749
 H        -1.195268         2.889567         2.372643
