19
Iteration:   814
 O         1.828607         2.688636         2.054053
 C         0.644170         1.812286         1.886040
 C         0.475609         1.082855         3.217784
 C        -0.334468         0.107601         2.233933
 C        -1.345062         0.861426         1.333747
 C        -0.590870         0.359989         0.025764
 C         0.572262         0.388142         0.970573
 O         1.777251        -0.180005         0.577351
 C        -0.759024         2.323041         1.556251
 H         1.737727         3.500102         1.533584
 H         1.395403         0.710705         3.593183
 H        -0.212560         1.522068         3.932395
 H        -0.494378        -0.955375         2.498126
 H        -2.466802         0.745249         1.541380
 H        -0.905495        -0.651527        -0.213172
 H        -0.476361         0.928295        -0.848943
 H         2.425002         0.480591         0.529492
 H        -0.900955         2.963409         0.676338
 H        -1.159117         2.776974         2.482559
