19
Iteration:   155charge 0 multiplicity 1
 O         1.558049         2.794293         1.790308
 C         0.662890         1.766300         1.970995
 C         0.385396         0.846344         3.219402
 C        -0.323389         0.008308         2.141298
 C        -1.325698         0.961741         1.368571
 C        -0.530613         0.543639         0.068689
 C         0.654252         0.444538         0.972222
 O         1.867280        -0.190869         0.780246
 C        -0.693854         2.317235         1.596466
 H         2.443762         2.555023         1.419770
 H         1.197058         0.272890         3.582319
 H        -0.218027         1.274934         3.993007
 H        -0.629027        -1.019102         2.205242
 H        -2.348757         0.887938         1.385690
 H        -0.861210        -0.394470        -0.220590
 H        -0.520296         1.254693        -0.765133
 H         2.636254         0.413119         0.603312
 H        -0.812701         2.977600         0.732709
 H        -1.061445         2.856036         2.401415
