19
Iteration:  4920charge 0 multiplicity 1
 O         1.768451         2.618596         1.498351
 C         0.585230         1.806346         1.861871
 C         0.308163         1.079817         3.229690
 C        -0.428911         0.067488         2.357806
 C        -1.343289         0.871630         1.306959
 C        -0.452346         0.307163         0.138134
 C         0.625394         0.454739         1.175629
 O         1.916281        -0.097874         0.906957
 C        -0.781645         2.325525         1.479483
 H         1.681498         3.585104         1.606496
 H         1.235497         0.599330         3.496479
 H        -0.161190         1.672910         4.055198
 H        -0.635881        -0.881603         2.662769
 H        -2.386238         0.701114         1.136562
 H        -0.710960        -0.730617        -0.024486
 H        -0.363307         0.793908        -0.807217
 H         2.710318         0.423868         0.774995
 H        -0.709850         2.746020         0.438529
 H        -1.181775         3.188200         2.096070
