19
Iteration:  2231
 O         1.683676         2.655578         1.744829
 C         0.623836         1.830402         1.855146
 C         0.450699         0.992592         3.173963
 C        -0.351010         0.038406         2.266709
 C        -1.370075         0.854443         1.332863
 C        -0.544105         0.455733         0.030606
 C         0.610997         0.378805         1.101464
 O         1.922879        -0.170762         0.879252
 C        -0.757001         2.379598         1.525196
 H         1.549681         3.283995         1.010452
 H         1.327664         0.464180         3.405629
 H        -0.042680         1.548734         3.945527
 H        -0.742617        -0.990782         2.587848
 H        -2.462997         0.719576         1.390826
 H        -0.901386        -0.409040        -0.529683
 H        -0.376779         1.327830        -0.751548
 H         2.554687         0.568088         1.075781
 H        -0.718375         3.008723         0.647032
 H        -1.264423         2.941079         2.322251
