19
Iteration:  3980charge 0 multiplicity 1
 O         1.742650         2.599821         1.495982
 C         0.646084         1.808118         1.872429
 C         0.413450         1.045008         3.183308
 C        -0.362464         0.079796         2.278293
 C        -1.397055         0.912039         1.352055
 C        -0.581438         0.470151         0.019498
 C         0.582480         0.369411         1.131509
 O         2.004107        -0.142534         1.003976
 C        -0.857968         2.295816         1.519308
 H         1.758525         3.536503         1.780739
 H         1.283092         0.491127         3.478634
 H        -0.135317         1.468725         4.045069
 H        -0.801334        -0.927400         2.584693
 H        -2.464496         0.726225         1.473741
 H        -0.670968        -0.600425        -0.241807
 H        -0.304067         1.163332        -0.748408
 H         2.641571         0.613357         0.715827
 H        -0.867820         2.973661         0.652036
 H        -1.117351         2.854164         2.494325
