19
Iteration:  1226
 O         1.764099         2.771942         1.778806
 C         0.721134         1.803346         1.977673
 C         0.371827         0.920901         3.223867
 C        -0.290778        -0.011617         2.152346
 C        -1.327102         0.941939         1.355968
 C        -0.687130         0.415896         0.095705
 C         0.622975         0.402922         0.998281
 O         1.837624        -0.141381         0.712466
 C        -0.689048         2.317900         1.560368
 H         1.457502         3.529067         2.322822
 H         1.182583         0.358336         3.521360
 H        -0.304299         1.279900         4.018398
 H        -0.565873        -0.942833         2.395052
 H        -2.351434         0.851573         1.405997
 H        -0.928655        -0.592024        -0.145243
 H        -0.917252         0.934088        -0.849566
 H         2.475426         0.539159         0.548694
 H        -0.694682         2.975882         0.666995
 H        -1.051397         2.868439         2.395181
