19
Iteration:  4040
 O         1.679775         2.813024         1.721603
 C         0.678186         1.891242         1.758596
 C         0.429563         1.132345         3.081254
 C        -0.344841         0.027897         2.362748
 C        -1.342699         0.921660         1.345582
 C        -0.570904         0.400973         0.100888
 C         0.641020         0.309716         1.036228
 O         1.900087        -0.355639         0.938177
 C        -0.767999         2.302573         1.471624
 H         1.456634         3.563253         2.338329
 H         1.387095         0.678140         3.516032
 H        -0.084268         1.566538         3.923191
 H        -0.676946        -0.894241         2.678019
 H        -2.427615         0.716843         1.423411
 H        -0.954191        -0.519536        -0.344774
 H        -0.399460         0.985341        -0.884768
 H         2.375410         0.351973         0.535569
 H        -0.968833         2.934773         0.604329
 H        -1.064205         2.842360         2.285622
