19
Iteration:  3607
 O         1.834280         2.523204         1.732191
 C         0.647520         1.798205         1.868470
 C         0.315395         1.147837         3.250001
 C        -0.403046         0.112923         2.251984
 C        -1.363272         0.836645         1.399219
 C        -0.537615         0.292478         0.104315
 C         0.620296         0.475751         1.110063
 O         1.893383        -0.057278         0.610401
 C        -0.752036         2.325799         1.507512
 H         1.687761         3.502970         1.746749
 H         0.999529         0.689422         4.109264
 H        -0.500690         1.623185         3.854280
 H        -0.755874        -0.795476         2.674559
 H        -2.508816         0.737816         1.506775
 H        -0.729296        -0.794875         0.079271
 H        -0.349426         0.882080        -0.796754
 H         2.486319         0.488208         1.043207
 H        -0.730360         2.773953         0.535761
 H        -0.976998         2.944055         2.369007
