19
Iteration:  3727
 O         1.683745         2.817121         1.617608
 C         0.621764         1.824040         1.843943
 C         0.502863         1.115435         3.300142
 C        -0.309927         0.059237         2.277347
 C        -1.367115         0.864231         1.284821
 C        -0.482945         0.401178         0.065419
 C         0.585695         0.359906         1.084842
 O         1.764326        -0.232371         0.904135
 C        -0.783264         2.281585         1.485935
 H         2.090540         2.710651         2.475250
 H         1.427827         0.544189         3.644447
 H        -0.024329         1.525248         4.141893
 H        -0.410675        -0.962005         2.440381
 H        -2.468758         0.714842         1.438775
 H        -0.832064        -0.451058        -0.586670
 H        -0.215852         1.272176        -0.687467
 H         2.501607         0.167848         0.356139
 H        -0.640468         2.737684         0.536866
 H        -1.225438         2.906893         2.295643
