19
Iteration:  4418charge 0 multiplicity 1
 O         1.754012         2.546198         1.432018
 C         0.562345         1.866379         1.885004
 C         0.359814         1.043271         3.243733
 C        -0.308472         0.111375         2.296677
 C        -1.289644         0.865659         1.306682
 C        -0.452856         0.325043         0.103149
 C         0.603560         0.379510         1.145720
 O         1.850067        -0.089427         0.985297
 C        -0.837161         2.395317         1.475582
 H         1.826556         3.364575         1.991267
 H         1.320297         0.788360         3.546028
 H        -0.085233         1.498255         4.127288
 H        -0.691607        -0.846454         2.571004
 H        -2.320374         0.547849         1.367952
 H        -0.694217        -0.777453        -0.166974
 H        -0.315924         1.021762        -0.700632
 H         2.492679         0.628502         0.938978
 H        -0.908707         2.918597         0.549753
 H        -1.354505         3.089401         2.128612
