19
Iteration:   473charge 0 multiplicity 1
 O         1.687257         2.716288         1.922762
 C         0.594971         1.837808         1.877636
 C         0.424463         0.991689         3.149865
 C        -0.261452         0.018777         2.192931
 C        -1.311069         0.953103         1.454949
 C        -0.605257         0.500489         0.102974
 C         0.662759         0.395391         0.961011
 O         1.884365        -0.192990         0.671968
 C        -0.815970         2.332251         1.516990
 H         2.514267         2.307132         2.254772
 H         1.371777         0.507864         3.566204
 H        -0.210227         1.231041         4.040537
 H        -0.538924        -1.010667         2.482416
 H        -2.426857         0.541289         1.634059
 H        -1.110318        -0.467899        -0.339521
 H        -0.572069         1.400484        -0.699194
 H         2.388591         0.406359         0.140364
 H        -1.011163         2.817937         0.494414
 H        -1.226936         2.932021         2.348560
