19
Iteration:  1442charge 0 multiplicity 1
 O         1.783882         2.658772         1.854710
 C         0.623173         1.839374         1.827054
 C         0.450502         0.964176         3.109688
 C        -0.312474         0.058692         2.197734
 C        -1.390261         0.915080         1.335503
 C        -0.578278         0.433590         0.089070
 C         0.632199         0.422383         1.017294
 O         1.856845        -0.123945         0.874042
 C        -0.776330         2.346627         1.572356
 H         1.647713         3.603445         1.737167
 H         1.380991         0.517262         3.378887
 H        -0.016395         1.470513         3.983562
 H        -0.482368        -0.992331         2.458327
 H        -2.440177         0.832892         1.275353
 H        -0.788341        -0.563544        -0.183779
 H        -0.441232         1.088743        -0.677753
 H         1.877118        -0.777833         0.083360
 H        -1.016447         2.936707         0.637543
 H        -1.164037         2.957548         2.385426
