19
Iteration:   802
 O         1.783668         2.776931         2.014061
 C         0.721292         1.886635         1.922500
 C         0.356930         0.994701         3.116230
 C        -0.310225         0.016993         2.243688
 C        -1.299670         0.937132         1.341898
 C        -0.629181         0.375926         0.122950
 C         0.620067         0.409026         0.982495
 O         1.795600        -0.231691         0.516950
 C        -0.723567         2.293441         1.595224
 H         1.576208         3.545204         1.435044
 H         1.135991         0.443672         3.593152
 H        -0.033524         1.640819         3.922683
 H        -0.670360        -1.015731         2.506529
 H        -2.509152         0.866206         1.381864
 H        -0.832070        -0.691851        -0.025967
 H        -0.610634         0.900126        -0.821980
 H         2.478223         0.197370         1.113034
 H        -0.742445         2.921468         0.648055
 H        -1.297915         2.888129         2.363857
