19
Iteration:  1184charge 0 multiplicity 1
 O         1.767033         2.603399         1.567521
 C         0.607593         1.878493         1.868213
 C         0.521798         0.897547         3.168611
 C        -0.363718         0.024241         2.245188
 C        -1.328980         0.845335         1.235206
 C        -0.451038         0.701471         0.069820
 C         0.576815         0.428250         1.093734
 O         1.845428        -0.226056         0.809811
 C        -0.926981         2.329336         1.810110
 H         1.538429         3.524340         1.339310
 H         1.492729         0.443372         3.273330
 H         0.016973         1.387944         4.065474
 H        -0.563428        -0.926747         2.435871
 H        -2.342801         0.551195         1.232486
 H        -0.594130        -0.200414        -0.535142
 H        -0.190634         1.560559        -0.616807
 H         2.522843         0.186704         1.498793
 H        -1.284466         3.145130         1.143886
 H        -1.434605         2.414583         2.741627
