19
Iteration:  1487
 O         1.614793         2.770613         1.608590
 C         0.653930         1.760790         1.908401
 C         0.485981         0.910934         3.193439
 C        -0.401678         0.000771         2.242770
 C        -1.362380         0.994310         1.284443
 C        -0.365774         0.647487         0.018372
 C         0.601644         0.409642         1.144008
 O         1.848775        -0.215612         0.954107
 C        -0.744460         2.257095         1.625832
 H         1.560203         2.694697         0.649457
 H         1.382537         0.333929         3.466991
 H         0.005962         1.292286         4.104635
 H        -0.663175        -1.010418         2.450469
 H        -2.472794         0.773505         1.388641
 H        -0.706072        -0.250418        -0.449660
 H        -0.175725         1.506802        -0.511756
 H         2.021713        -0.384787        -0.011249
 H        -0.870898         3.165018         0.918156
 H        -1.319246         2.619391         2.508001
