19
Iteration:   317
 O         1.742276         2.702202         1.977175
 C         0.681038         1.781826         1.978297
 C         0.423197         0.921251         3.217382
 C        -0.334578         0.008638         2.182928
 C        -1.350799         0.822041         1.351448
 C        -0.571113         0.546824         0.076626
 C         0.636561         0.483122         1.033443
 O         1.805544         0.007441         0.580948
 C        -0.737845         2.238869         1.500047
 H         2.105802         2.598194         1.072461
 H         1.331805         0.514128         3.623707
 H        -0.246017         1.424166         3.942955
 H        -0.746888        -0.846190         2.262924
 H        -2.380524         0.726273         1.483209
 H        -0.827679        -0.451192        -0.233518
 H        -0.606772         1.393231        -0.686478
 H         2.244062        -0.700803         1.204951
 H        -0.856425         2.818135         0.559252
 H        -1.152730         2.935898         2.275495
