19
Iteration:  2405charge 0 multiplicity 1
 O         1.759790         2.699045         1.630297
 C         0.627211         1.810483         1.956697
 C         0.362072         0.974639         3.224986
 C        -0.339657         0.035603         2.239625
 C        -1.297314         0.877054         1.380677
 C        -0.480812         0.458607         0.055205
 C         0.607931         0.450168         1.110420
 O         1.824870        -0.168892         0.898659
 C        -0.783431         2.338950         1.498618
 H         1.476843         2.942718         0.731761
 H         1.252231         0.641947         3.743956
 H        -0.322115         1.351611         4.021379
 H        -0.511861        -1.103906         2.441509
 H        -2.344976         0.653855         1.494071
 H        -0.736990        -0.443568        -0.410779
 H        -0.451047         1.199529        -0.666065
 H         2.563958         0.418821         0.485057
 H        -0.725724         2.788748         0.504233
 H        -1.319182         3.107994         2.120694
