19
Iteration:  1289charge 0 multiplicity 1
 O         1.736652         2.687584         1.705313
 C         0.655750         1.791990         1.898585
 C         0.382582         0.992419         3.230018
 C        -0.338431         0.016424         2.224220
 C        -1.380466         0.854153         1.366632
 C        -0.454506         0.536126         0.058090
 C         0.649089         0.417123         1.068308
 O         1.848395        -0.116792         0.737821
 C        -0.806919         2.340392         1.604548
 H         2.249797         2.901148         2.509077
 H         1.180304         0.454098         3.704343
 H        -0.120514         1.503538         4.045233
 H        -0.628327        -1.038571         2.508388
 H        -2.395890         0.619573         1.440172
 H        -0.635698        -0.425138        -0.435862
 H        -0.585030         1.335263        -0.712740
 H         1.851521        -0.344705        -0.215829
 H        -0.964500         2.974553         0.703803
 H        -1.208918         2.895680         2.470120
