19
Iteration:  2797charge 0 multiplicity 1
 O         1.705530         2.893564         1.764146
 C         0.728651         1.850864         1.936466
 C         0.318841         1.114081         3.218725
 C        -0.267740         0.127596         2.246398
 C        -1.361789         0.826702         1.273048
 C        -0.509611         0.367864         0.078197
 C         0.719941         0.457941         1.083429
 O         1.851024        -0.365500         0.816758
 C        -0.870651         2.346354         1.554424
 H         2.394138         2.545231         1.142166
 H         1.118515         0.503078         3.655231
 H        -0.300661         1.687164         3.968809
 H        -0.504563        -1.015710         2.311413
 H        -2.486010         0.687742         1.462204
 H        -0.471506        -0.711832        -0.131910
 H        -0.540434         0.939467        -0.887781
 H         1.782688        -0.682601        -0.130412
 H        -0.949716         3.084645         0.770056
 H        -1.449705         2.815190         2.381618
