19
Iteration:  1967charge 0 multiplicity 1
 O         1.704635         2.854079         1.865853
 C         0.677005         1.873893         1.843865
 C         0.451939         1.014346         3.125165
 C        -0.344538         0.038087         2.197296
 C        -1.320036         0.941429         1.293800
 C        -0.525810         0.469756         0.036757
 C         0.619207         0.391794         1.017416
 O         1.904779        -0.278809         0.796341
 C        -0.859987         2.313114         1.681711
 H         1.893146         2.986651         0.910063
 H         1.377772         0.543979         3.429965
 H         0.018103         1.434809         4.047411
 H        -0.474483        -1.028265         2.401546
 H        -2.439264         0.608626         1.124186
 H        -0.785138        -0.504358        -0.235489
 H        -0.579345         1.071094        -0.855354
 H         1.828033        -1.218148         0.846227
 H        -1.193650         3.219055         1.136255
 H        -1.178160         2.573280         2.766014
