19
Iteration:   932charge 0 multiplicity 1
 O         1.730846         2.785523         1.893269
 C         0.737825         1.821806         1.877007
 C         0.453828         0.947939         3.211409
 C        -0.308962         0.027077         2.142582
 C        -1.374631         0.892996         1.384579
 C        -0.639344         0.497260         0.072271
 C         0.657132         0.471887         0.964786
 O         1.808631        -0.222857         0.601420
 C        -0.759797         2.322799         1.592356
 H         1.779999         2.986458         2.846751
 H         1.329722         0.517788         3.714637
 H        -0.275162         1.505106         3.859130
 H        -0.447616        -1.042041         2.279017
 H        -2.502420         0.719950         1.686579
 H        -0.736977        -0.579484        -0.271854
 H        -0.597033         1.089206        -0.940793
 H         2.349886        -0.464702         1.411225
 H        -0.764082         3.017055         0.682639
 H        -1.372684         2.860233         2.378706
