19
Iteration:  1584charge 0 multiplicity 1
 O         1.787445         2.641639         1.803603
 C         0.681389         1.767676         1.961876
 C         0.395478         0.948454         3.245280
 C        -0.450190         0.090964         2.347223
 C        -1.333321         0.874380         1.270748
 C        -0.485436         0.427507         0.054782
 C         0.608886         0.451809         1.066082
 O         1.826264        -0.002090         0.612656
 C        -0.766889         2.310201         1.514042
 H         1.655713         3.440689         2.334514
 H         1.335233         0.444806         3.540046
 H         0.061247         1.553169         4.107680
 H        -0.561605        -0.914692         2.725879
 H        -2.447370         0.808243         1.197924
 H        -0.738258        -0.619693        -0.159020
 H        -0.328198         1.137368        -0.785478
 H         1.889380        -0.975465         0.383673
 H        -0.633886         2.995951         0.644984
 H        -1.263085         2.838800         2.338309
