19
Iteration:  4717charge 0 multiplicity 1
 O         1.644774         2.799356         1.555085
 C         0.615824         1.889396         1.841677
 C         0.346696         1.146468         3.164716
 C        -0.364820         0.150682         2.280591
 C        -1.364624         0.831405         1.318603
 C        -0.432274         0.299064         0.191788
 C         0.640567         0.459461         1.124204
 O         1.879621        -0.292045         0.983432
 C        -0.781191         2.302217         1.458940
 H         2.465359         2.339808         1.844672
 H         1.280008         0.688114         3.553285
 H        -0.047352         1.579004         3.997753
 H        -0.479354        -0.968734         2.411066
 H        -2.402737         0.669516         1.250782
 H        -0.522237        -0.812948         0.043593
 H        -0.433897         0.766608        -0.845587
 H         2.466959         0.217442         0.403797
 H        -0.806135         2.890793         0.522522
 H        -1.255994         2.963614         2.153496
