19
Iteration:    94charge 0 multiplicity 1
 O         1.627432         2.759832         1.852752
 C         0.633772         1.808160         1.905374
 C         0.531325         0.944066         3.107161
 C        -0.347003         0.005096         2.226910
 C        -1.403124         0.836315         1.368811
 C        -0.530893         0.599237         0.042498
 C         0.656811         0.508448         0.998859
 O         1.862915        -0.277854         0.804863
 C        -0.779981         2.349642         1.582941
 H         1.952959         2.937767         2.770429
 H         1.487835         0.302250         3.192168
 H         0.236048         1.459509         4.076094
 H        -0.352710        -1.156020         2.400241
 H        -2.555522         0.656985         1.242711
 H        -0.754415        -0.326939        -0.628536
 H        -0.554515         1.403911        -0.730671
 H         2.137004        -0.021212        -0.150357
 H        -0.802089         2.824687         0.571977
 H        -1.189808         2.984836         2.463997
