19
Iteration:  3154
 O         1.767192         2.732898         1.848064
 C         0.687091         1.870541         1.882764
 C         0.434794         1.080580         3.178083
 C        -0.328646         0.064984         2.198044
 C        -1.365707         0.790114         1.384512
 C        -0.661218         0.357665         0.065167
 C         0.677627         0.489221         0.924634
 O         1.836655        -0.250676         0.903734
 C        -0.770705         2.318010         1.454014
 H         1.542692         3.345034         1.142273
 H         1.445489         0.794718         3.489163
 H        -0.130135         1.609614         3.985312
 H        -0.511705        -0.989979         2.478465
 H        -2.478809         0.901903         1.613730
 H        -0.932595        -0.688266        -0.202055
 H        -0.909087         0.956257        -0.844039
 H         2.741304         0.143709         0.986187
 H        -0.857701         2.943559         0.495620
 H        -1.061594         2.996858         2.300236
