19
Iteration:  4684
 O         1.581075         2.977729         1.716148
 C         0.613790         1.952671         1.839078
 C         0.424814         1.236361         3.150277
 C        -0.261719         0.114651         2.304425
 C        -1.342117         0.855912         1.309720
 C        -0.532051         0.300127         0.094399
 C         0.593245         0.232985         1.088374
 O         1.860270        -0.420515         0.986694
 C        -0.707085         2.299886         1.425640
 H         2.405171         2.535217         1.977864
 H         1.414868         1.010317         3.537344
 H        -0.232803         1.670828         3.779394
 H        -0.457466        -0.919560         2.617787
 H        -2.337605         0.626564         1.285345
 H        -0.596071        -0.707598        -0.265591
 H        -0.360310         1.003457        -0.783462
 H         2.126618        -0.308254        -0.000937
 H        -0.695093         2.779943         0.421997
 H        -1.217983         2.876151         2.166388
