19
Iteration:  1589
 O         1.784243         2.639548         1.787480
 C         0.698346         1.787993         1.923533
 C         0.397573         0.954710         3.212154
 C        -0.443262         0.081773         2.294878
 C        -1.372344         0.903600         1.317926
 C        -0.488078         0.428357         0.036290
 C         0.602539         0.492151         1.095896
 O         1.846815        -0.021188         0.644444
 C        -0.757232         2.280063         1.574629
 H         1.633162         3.516041         2.194154
 H         1.306375         0.420860         3.574622
 H        -0.098128         1.442443         4.079133
 H        -0.700138        -0.938089         2.655921
 H        -2.537821         0.825887         1.239684
 H        -0.559780        -0.638283        -0.304292
 H        -0.269903         1.003352        -0.867760
 H         1.890369        -0.985618         0.457977
 H        -0.663292         2.919487         0.608289
 H        -1.159602         2.792387         2.498441
