19
Iteration:  4239charge 0 multiplicity 1
 O         1.690689         2.646933         1.682835
 C         0.655334         1.858374         1.830379
 C         0.347702         1.149256         3.164772
 C        -0.381774         0.114596         2.306248
 C        -1.366875         0.924740         1.332648
 C        -0.552557         0.258146         0.144753
 C         0.694919         0.426571         1.087190
 O         1.946193        -0.243512         0.816506
 C        -0.764665         2.392852         1.426276
 H         1.841284         3.377138         2.291292
 H         1.227273         0.565073         3.530400
 H        -0.119722         1.654075         4.013277
 H        -0.650070        -0.982196         2.521777
 H        -2.451075         0.581529         1.476741
 H        -0.877567        -0.822208         0.066738
 H        -0.684156         0.796391        -0.802884
 H         2.568284         0.390403         1.170511
 H        -0.842831         2.925993         0.515323
 H        -1.197576         2.949867         2.225672
