19
Iteration:   753charge 0 multiplicity 1
 O         1.747009         2.762619         1.837561
 C         0.638755         1.839532         1.870800
 C         0.545495         0.966769         3.117188
 C        -0.344072         0.032695         2.225074
 C        -1.348211         0.837927         1.295933
 C        -0.564168         0.620691         0.032190
 C         0.593507         0.431499         1.029883
 O         1.837313        -0.203854         0.837943
 C        -0.826488         2.281216         1.677019
 H         1.704509         3.030595         0.909200
 H         1.578529         0.541482         3.386572
 H         0.106751         1.304378         4.051391
 H        -0.550385        -0.979392         2.382552
 H        -2.373817         0.630549         1.344498
 H        -0.678983        -0.368628        -0.446384
 H        -0.435009         1.433142        -0.778455
 H         1.612122        -1.015485         0.326236
 H        -0.992499         3.070198         0.911774
 H        -1.070618         2.684273         2.651618
