19
Iteration:  4755
 O         1.701081         2.614176         1.506457
 C         0.601701         1.813539         1.780410
 C         0.424752         1.173629         3.150374
 C        -0.390396         0.106849         2.268970
 C        -1.391394         0.801104         1.364526
 C        -0.541826         0.343125         0.101773
 C         0.605833         0.367738         1.130238
 O         1.962910        -0.041584         1.100527
 C        -0.741768         2.258932         1.432110
 H         2.261249         2.633900         2.293399
 H         1.305793         0.612378         3.405413
 H        -0.239783         1.801478         3.878883
 H        -0.656141        -0.902554         2.670796
 H        -2.549650         0.767265         1.371948
 H        -0.960542        -0.602092        -0.287996
 H        -0.620100         1.009416        -0.726880
 H         2.395416         0.817406         0.714400
 H        -0.661493         2.767568         0.457285
 H        -1.114497         2.939609         2.283974
