19
Iteration:  2013
 O         1.777026         2.626090         1.963010
 C         0.647396         1.832083         1.887135
 C         0.370981         1.021135         3.137572
 C        -0.336675         0.000079         2.275622
 C        -1.389331         0.821670         1.343079
 C        -0.608857         0.436885         0.155549
 C         0.640381         0.435949         1.098447
 O         1.835494        -0.002117         0.598960
 C        -0.680876         2.258619         1.391174
 H         1.692212         3.353486         1.316856
 H         1.245851         0.588524         3.557889
 H        -0.076926         1.580283         4.025024
 H        -0.615018        -0.911644         2.745580
 H        -2.442470         0.905709         1.704141
 H        -0.827291        -0.512296        -0.200676
 H        -0.606160         1.135851        -0.666564
 H         2.405141        -0.220461         1.290408
 H        -0.528408         2.706377         0.351182
 H        -1.176675         3.100035         1.934842
