19
Iteration:  3632
 O         1.873061         2.544751         1.702814
 C         0.574992         1.819652         1.875340
 C         0.343647         1.046811         3.222716
 C        -0.283868         0.009187         2.305387
 C        -1.307149         0.927940         1.305209
 C        -0.601355         0.309601         0.156813
 C         0.596748         0.435334         1.067733
 O         1.897114        -0.069738         0.730694
 C        -0.839910         2.402333         1.479577
 H         1.650548         3.461840         1.943535
 H         1.351669         0.853606         3.671802
 H        -0.339957         1.497643         3.999773
 H        -0.835542        -0.854842         2.688419
 H        -2.394345         0.743561         1.194832
 H        -0.948762        -0.714549         0.103753
 H        -0.537455         0.773337        -0.757863
 H         2.448681         0.723319         0.943965
 H        -0.618689         2.920333         0.540705
 H        -1.302877         2.964978         2.288949
