19
Iteration:  2710
 O         1.723183         2.598933         1.609987
 C         0.616145         1.837981         1.845141
 C         0.335822         1.078703         3.232151
 C        -0.271717         0.013634         2.241623
 C        -1.366582         0.884810         1.321568
 C        -0.555172         0.437541         0.043424
 C         0.574797         0.436119         1.074355
 O         1.965118         0.013492         0.907574
 C        -0.794075         2.339388         1.589619
 H         2.404727         1.882028         1.591002
 H         1.288990         0.850489         3.703777
 H        -0.429273         1.452394         3.949003
 H        -0.535034        -1.124585         2.404271
 H        -2.458301         0.793024         1.248601
 H        -0.847700        -0.613697        -0.262264
 H        -0.579286         1.251880        -0.773226
 H         2.351453        -0.929655         1.084965
 H        -0.856286         2.841696         0.631673
 H        -1.235036         2.863114         2.479138
