19
Iteration:  2847
 O         1.688632         2.707990         1.588423
 C         0.630049         1.790792         1.777396
 C         0.469397         0.965630         3.197932
 C        -0.333468         0.067222         2.294138
 C        -1.368975         0.898639         1.399415
 C        -0.594490         0.499037         0.045122
 C         0.569273         0.426740         1.011244
 O         1.957418        -0.159628         1.026412
 C        -0.765400         2.295280         1.487003
 H         2.143120         2.565495         2.436009
 H         1.346285         0.385636         3.503587
 H        -0.138562         1.502483         3.941448
 H        -0.786240        -0.861233         2.420992
 H        -2.463810         0.630167         1.488671
 H        -1.123092        -0.443299        -0.272111
 H        -0.441696         1.255067        -0.746121
 H         2.571598         0.461538         0.690611
 H        -0.937777         2.767902         0.489613
 H        -1.195305         3.030733         2.176344
