19
Iteration:  1895
 O         1.779199         2.600706         1.842813
 C         0.636038         1.779260         1.850950
 C         0.342696         1.092501         3.231985
 C        -0.422914         0.053053         2.260319
 C        -1.354569         0.862795         1.284481
 C        -0.568164         0.371001         0.084985
 C         0.709602         0.450949         1.021261
 O         1.934700         0.039763         0.691154
 C        -0.749893         2.312285         1.672028
 H         1.915552         2.910524         0.925621
 H         1.225933         0.597676         3.626889
 H        -0.147740         1.738656         4.048975
 H        -0.768498        -0.897964         2.644845
 H        -2.377084         0.823780         1.175572
 H        -0.916384        -0.744331        -0.223121
 H        -0.623685         0.874481        -0.956402
 H         1.962139        -0.894705         0.365443
 H        -1.020963         3.073130         0.885343
 H        -1.189804         2.607341         2.610695
