19
Iteration:  1225charge 0 multiplicity 1
 O         1.755493         2.769108         1.771328
 C         0.724976         1.799350         1.980631
 C         0.378247         0.918525         3.222965
 C        -0.293444        -0.002998         2.154029
 C        -1.321476         0.931427         1.355838
 C        -0.688464         0.425534         0.087214
 C         0.616345         0.406781         1.004547
 O         1.840301        -0.147651         0.714160
 C        -0.690172         2.322537         1.560088
 H         1.448343         3.532808         2.300991
 H         1.203642         0.368863         3.550647
 H        -0.269187         1.251013         4.033376
 H        -0.578131        -0.979839         2.414800
 H        -2.352399         0.859998         1.383289
 H        -0.898868        -0.579337        -0.165702
 H        -0.893626         0.962908        -0.844407
 H         2.442716         0.552890         0.605293
 H        -0.700840         2.984162         0.672811
 H        -1.054848         2.875047         2.407218
