19
Iteration:  3286charge 0 multiplicity 1
 O         1.739363         2.710393         1.872239
 C         0.672378         1.839076         1.852354
 C         0.482251         1.084896         3.182720
 C        -0.408048         0.109020         2.358951
 C        -1.385584         0.925302         1.440521
 C        -0.443441         0.363721        -0.043465
 C         0.508687         0.382463         1.061776
 O         1.834384        -0.206604         0.776434
 C        -0.772776         2.254396         1.422494
 H         1.801180         3.080362         0.985127
 H         1.347451         0.533808         3.525083
 H        -0.043064         1.741302         3.998396
 H        -0.696845        -0.857708         2.846357
 H        -2.420890         0.819194         1.550221
 H        -0.606674        -0.665709        -0.209593
 H        -0.409110         1.040069        -0.852862
 H         2.407484         0.526253         0.317015
 H        -0.569200         2.770795         0.469371
 H        -1.249139         2.828544         2.210906
