19
Iteration:  2153charge 0 multiplicity 1
 O         1.713533         2.706506         1.937806
 C         0.628080         1.769207         1.868257
 C         0.418061         1.038887         3.171965
 C        -0.334327         0.075371         2.244909
 C        -1.319184         0.835062         1.376976
 C        -0.571842         0.361200         0.113311
 C         0.609105         0.391204         1.021936
 O         1.834826        -0.151170         0.678953
 C        -0.689471         2.387011         1.439089
 H         1.439359         3.476233         1.403714
 H         1.339665         0.738702         3.518119
 H        -0.058687         1.498353         4.021069
 H        -0.613084        -0.931554         2.456311
 H        -2.457156         0.726077         1.492536
 H        -0.726511        -0.681016        -0.157687
 H        -0.710436         1.112963        -0.734338
 H         2.544916         0.288492         1.250450
 H        -0.698556         2.804278         0.468887
 H        -1.131477         3.168863         2.091168
