19
Iteration:  2215
 O         1.854381         2.555874         1.699947
 C         0.605267         1.789972         1.880577
 C         0.335116         1.036624         3.219661
 C        -0.378035         0.039414         2.238976
 C        -1.339807         0.960625         1.257461
 C        -0.500617         0.365250         0.117981
 C         0.617714         0.421246         1.082742
 O         1.883567         0.008349         0.775430
 C        -0.826349         2.314151         1.597261
 H         1.654387         3.120613         0.923305
 H         1.339070         0.604301         3.654140
 H        -0.288132         1.517807         4.028322
 H        -0.634108        -0.959580         2.483812
 H        -2.436619         0.793707         1.245674
 H        -0.707178        -0.752292        -0.000626
 H        -0.516404         0.831288        -0.875003
 H         2.453457         0.454148         1.528628
 H        -0.946907         2.918685         0.652943
 H        -1.292409         2.705413         2.527927
