19
Iteration:  4836charge 0 multiplicity 1
 O         1.684312         2.847195         1.778559
 C         0.599735         1.917114         1.842876
 C         0.398003         1.163621         3.180655
 C        -0.294392         0.103224         2.303631
 C        -1.339857         0.877693         1.352646
 C        -0.551130         0.264981         0.113580
 C         0.630984         0.342201         1.156454
 O         1.868959        -0.340710         0.790751
 C        -0.719153         2.295363         1.376772
 H         1.443960         3.244417         0.918150
 H         1.315752         0.727169         3.703188
 H        -0.050982         1.705816         4.035036
 H        -0.608796        -0.917635         2.655979
 H        -2.394034         0.837014         1.507998
 H        -0.687124        -0.868468        -0.156547
 H        -0.474691         0.932818        -0.800569
 H         2.408355         0.382469         1.267406
 H        -0.527252         2.783772         0.387401
 H        -1.381694         2.883319         1.970881
