19
Iteration:  1829
 O         1.699400         2.807870         1.870251
 C         0.735794         1.804027         1.898967
 C         0.431861         0.990123         3.221325
 C        -0.357634         0.090827         2.173502
 C        -1.353599         0.910548         1.268904
 C        -0.628438         0.341416         0.067326
 C         0.577054         0.373921         0.986238
 O         1.901147        -0.062739         0.752656
 C        -0.716377         2.289136         1.659951
 H         2.230931         2.995320         1.089331
 H         1.288536         0.474440         3.575654
 H        -0.009437         1.571163         4.089994
 H        -0.683394        -0.896503         2.436753
 H        -2.383377         0.686306         1.324055
 H        -1.102525        -0.707686        -0.117338
 H        -0.460458         0.928590        -0.862584
 H         1.859713        -0.977194         0.333992
 H        -0.734668         3.092140         0.895869
 H        -1.288882         2.712597         2.473021
