19
Iteration:  2983
 O         1.738509         2.766428         1.795993
 C         0.626414         1.809862         1.796618
 C         0.470311         1.078769         3.126850
 C        -0.336270         0.116046         2.324747
 C        -1.327660         0.875654         1.268750
 C        -0.472183         0.428371         0.066042
 C         0.624103         0.372549         1.067261
 O         1.758158        -0.257393         0.785375
 C        -0.777919         2.298005         1.623878
 H         1.673872         3.251112         0.929867
 H         1.417926         0.478461         3.338947
 H         0.085935         1.617984         4.010933
 H        -0.677503        -0.925182         2.693956
 H        -2.406217         0.636489         1.275162
 H        -0.755683        -0.455542        -0.422179
 H        -0.558279         1.222088        -0.629139
 H         2.322052        -0.051016         1.521208
 H        -0.811360         2.943475         0.761292
 H        -1.333097         2.772897         2.442674
