19
Iteration:  4324charge 0 multiplicity 1
 O         1.692878         2.813811         1.566453
 C         0.694943         1.824763         1.855258
 C         0.410109         1.164351         3.158923
 C        -0.401051         0.128426         2.329989
 C        -1.366254         0.877444         1.296677
 C        -0.503469         0.345779         0.042784
 C         0.589492         0.320800         1.066827
 O         1.862832        -0.265439         0.966188
 C        -0.721517         2.195581         1.522056
 H         1.664847         3.307726         2.395968
 H         1.377524         0.744595         3.604951
 H        -0.038016         1.689160         4.009801
 H        -0.685832        -0.886324         2.683362
 H        -2.525799         0.795941         1.300564
 H        -0.803951        -0.682008        -0.263394
 H        -0.522628         1.176812        -0.768027
 H         2.617286         0.401331         0.729322
 H        -0.682012         2.957588         0.649493
 H        -1.135243         2.816618         2.373620
