19
Iteration:  1538charge 0 multiplicity 1
 O         1.784750         2.750606         1.865139
 C         0.711893         1.852405         1.828491
 C         0.338832         1.048005         3.164316
 C        -0.300617         0.001292         2.144244
 C        -1.306611         0.852329         1.356369
 C        -0.679673         0.368621         0.080139
 C         0.622137         0.511734         1.023641
 O         1.848683        -0.107212         0.797929
 C        -0.718903         2.318431         1.570482
 H         2.427294         2.361720         2.489864
 H         1.101079         0.605804         3.779227
 H        -0.372336         1.513396         3.877369
 H        -0.650291        -1.054711         2.247123
 H        -2.289017         0.696461         1.384185
 H        -0.803466        -0.712815         0.034403
 H        -0.918667         1.047718        -0.814242
 H         1.928913        -0.542718        -0.138896
 H        -0.805565         2.864762         0.688290
 H        -1.166122         2.893486         2.347188
