19
Iteration:  3505charge 0 multiplicity 1
 O         1.647366         2.700719         1.727214
 C         0.557618         1.826282         1.809701
 C         0.471502         1.068665         3.153776
 C        -0.297693         0.085990         2.278434
 C        -1.339636         0.906725         1.301319
 C        -0.393137         0.539733         0.149212
 C         0.638898         0.462845         1.100255
 O         1.769428        -0.368048         0.865864
 C        -0.786435         2.292808         1.564893
 H         1.745475         3.082291         0.837147
 H         1.521771         0.833537         3.249373
 H         0.127661         1.342571         4.197815
 H        -0.586710        -0.941183         2.578493
 H        -2.319219         0.607212         1.397101
 H        -0.620513        -0.427794        -0.321079
 H        -0.394920         1.320076        -0.705647
 H         2.429779         0.286025         0.444004
 H        -0.972574         2.928738         0.703951
 H        -1.233377         2.830384         2.361364
