19
Iteration:  4489
 O         1.675866         2.728754         1.607417
 C         0.614132         1.886973         1.861101
 C         0.429060         1.175432         3.217248
 C        -0.309878         0.112674         2.263607
 C        -1.361403         0.845410         1.269690
 C        -0.491874         0.312860         0.163023
 C         0.691393         0.491976         1.157235
 O         1.825806        -0.345986         0.891543
 C        -0.816665         2.293004         1.427892
 H         1.806668         3.444172         2.274405
 H         1.353372         0.702041         3.662149
 H        -0.000225         1.643494         4.135191
 H        -0.649129        -0.896917         2.629701
 H        -2.379491         0.500804         1.234060
 H        -0.764111        -0.664284         0.172314
 H        -0.437893         0.923216        -0.752532
 H         2.543491         0.189074         0.480269
 H        -0.593784         2.873805         0.487646
 H        -1.380697         3.122412         1.887026
