19
Iteration:  4204charge 0 multiplicity 1
 O         1.740351         2.883786         1.715461
 C         0.626741         1.889361         1.862426
 C         0.363454         1.174651         3.131708
 C        -0.346015         0.073975         2.338303
 C        -1.288644         0.770983         1.365389
 C        -0.435421         0.330837         0.110920
 C         0.614564         0.357484         1.139790
 O         1.721657        -0.367425         0.783400
 C        -0.749584         2.334237         1.387335
 H         1.843835         3.545519         2.416845
 H         1.256050         0.711595         3.634580
 H        -0.220875         1.657807         3.853893
 H        -0.449715        -0.936636         2.630231
 H        -2.424627         0.591050         1.402231
 H        -0.646023        -0.647841        -0.315510
 H        -0.405725         1.074589        -0.694148
 H         2.628987         0.000355         0.864466
 H        -0.771055         2.989081         0.481941
 H        -1.044461         2.957688         2.222347
