19
Iteration:  1181
 O         1.784453         2.610599         1.555057
 C         0.589107         1.893019         1.871445
 C         0.507904         0.892208         3.187971
 C        -0.364262         0.030257         2.261196
 C        -1.332105         0.860688         1.227712
 C        -0.450262         0.686146         0.045400
 C         0.582119         0.434548         1.070184
 O         1.854669        -0.220610         0.825656
 C        -0.922461         2.309477         1.830737
 H         1.575563         3.520037         1.272656
 H         1.438773         0.454199         3.392268
 H         0.000485         1.379978         3.985401
 H        -0.580212        -1.024932         2.388257
 H        -2.327569         0.512085         1.322158
 H        -0.646689        -0.131937        -0.618848
 H        -0.258978         1.517833        -0.631447
 H         2.515439         0.089394         1.394624
 H        -1.236066         3.152327         1.197743
 H        -1.439787         2.397073         2.777529
