19
Iteration:  3688charge 0 multiplicity 1
 O         1.688881         2.782299         1.492338
 C         0.613157         1.827086         1.844855
 C         0.402697         0.983254         3.177687
 C        -0.280445         0.054598         2.193300
 C        -1.323725         0.993008         1.355137
 C        -0.462577         0.416375         0.039092
 C         0.619012         0.419032         1.066548
 O         1.891355        -0.373420         0.991896
 C        -0.883624         2.392663         1.669669
 H         1.871219         3.353692         2.284633
 H         1.317698         0.494303         3.474710
 H        -0.197174         1.450177         4.026714
 H        -0.492516        -1.075502         2.254694
 H        -2.366248         0.786127         1.445229
 H        -0.873216        -0.530174        -0.253893
 H        -0.186544         1.033251        -0.776535
 H         2.403475         0.301267         0.641630
 H        -1.059108         3.220055         0.912243
 H        -1.329112         2.775221         2.595497
