19
Iteration:  4318charge 0 multiplicity 1
 O         1.718919         2.802852         1.531423
 C         0.649747         1.798892         1.773793
 C         0.398881         1.146368         3.202643
 C        -0.374421         0.075177         2.344240
 C        -1.357301         0.879193         1.277631
 C        -0.507629         0.364192         0.067426
 C         0.593185         0.320067         1.114178
 O         1.872555        -0.247384         0.977498
 C        -0.729055         2.282733         1.538699
 H         1.786600         3.302918         2.362011
 H         1.249327         0.654807         3.596237
 H        -0.270420         1.633773         3.951925
 H        -0.573097        -0.971613         2.701339
 H        -2.409136         0.833296         1.304974
 H        -0.791373        -0.538421        -0.506490
 H        -0.481613         0.987440        -0.783086
 H         2.452759         0.508156         0.743106
 H        -0.766690         2.964099         0.747493
 H        -1.154142         2.721412         2.425364
