19
Iteration:   408charge 0 multiplicity 1
 O         1.548455         2.792187         1.705265
 C         0.626498         1.820892         1.973888
 C         0.461455         0.817083         3.103308
 C        -0.306705        -0.026720         2.097705
 C        -1.362802         0.971848         1.356728
 C        -0.500282         0.634977         0.001599
 C         0.629896         0.395824         1.001179
 O         1.964248        -0.160081         0.875334
 C        -0.788110         2.351732         1.737010
 H         2.290868         2.342500         1.289618
 H         1.492898         0.328707         3.210618
 H         0.099394         1.166796         4.081061
 H        -0.559123        -1.074729         2.444958
 H        -2.549432         0.861700         1.303592
 H        -1.001105        -0.319852        -0.338793
 H        -0.290062         1.534296        -0.676177
 H         1.760536        -1.102353         1.006326
 H        -0.859660         3.181890         0.952319
 H        -1.122993         2.780560         2.693932
