19
Iteration:  4653
 O         1.566017         2.958387         1.694543
 C         0.643925         1.892437         1.792948
 C         0.469513         1.134881         3.172044
 C        -0.328243         0.172468         2.273222
 C        -1.341508         0.897522         1.295847
 C        -0.532756         0.271824         0.122074
 C         0.669136         0.386306         1.085906
 O         1.875015        -0.440750         0.985402
 C        -0.752805         2.303976         1.389362
 H         2.249770         2.753757         2.363397
 H         1.466210         0.764010         3.592604
 H        -0.106043         1.603675         4.061443
 H        -0.603758        -0.911610         2.559997
 H        -2.417660         0.720527         1.390024
 H        -0.582084        -0.743617         0.143479
 H        -0.535133         0.811677        -0.799096
 H         2.154225        -0.380267         0.104178
 H        -0.824544         2.852210         0.409549
 H        -1.204107         2.928679         2.233337
