19
Iteration:  1345
 O         1.706377         2.685146         1.783216
 C         0.655214         1.860369         1.875990
 C         0.583013         0.908703         3.080554
 C        -0.391429         0.042233         2.210293
 C        -1.362060         0.885866         1.307885
 C        -0.455956         0.566381         0.006150
 C         0.588826         0.459464         1.072804
 O         1.844415        -0.102652         0.924247
 C        -0.849657         2.274147         1.638012
 H         1.883411         2.934770         0.869462
 H         1.476247         0.379467         3.074018
 H         0.223106         1.231524         4.057113
 H        -0.588831        -0.972641         2.415874
 H        -2.412319         0.918948         1.364984
 H        -0.727521        -0.400830        -0.476421
 H        -0.558000         1.471906        -0.664837
 H         1.599710        -1.106705         1.007498
 H        -1.044823         2.933325         0.736075
 H        -1.289585         2.721569         2.520003
