19
Iteration:  2062
 O         1.782308         2.663462         1.773265
 C         0.620486         1.834893         1.920979
 C         0.398674         0.946619         3.118698
 C        -0.373041         0.064978         2.185367
 C        -1.362796         0.911354         1.317710
 C        -0.518396         0.449519         0.052857
 C         0.623555         0.458587         1.017344
 O         1.885964        -0.134068         0.901925
 C        -0.777767         2.287435         1.684364
 H         1.554456         3.059906         0.911580
 H         1.422684         0.763170         3.569088
 H        -0.140164         1.305412         3.983722
 H        -0.593749        -1.034342         2.271335
 H        -2.429830         0.973998         1.172277
 H        -0.745110        -0.706163        -0.098916
 H        -0.542738         1.067185        -0.911700
 H         2.210513         0.216871        -0.022258
 H        -0.817135         3.004666         0.863781
 H        -1.348719         2.825173         2.418426
