19
Iteration:  1481charge 0 multiplicity 1
 O         1.631501         2.761378         1.589484
 C         0.701523         1.792175         1.928980
 C         0.446266         0.920810         3.243030
 C        -0.364233         0.025366         2.226239
 C        -1.353775         0.921600         1.271289
 C        -0.408265         0.632895         0.024403
 C         0.574042         0.404945         1.092281
 O         1.860101        -0.220883         0.960907
 C        -0.786339         2.295305         1.684507
 H         1.532343         2.843553         0.608005
 H         1.261763         0.192466         3.474897
 H        -0.035530         1.362703         4.124320
 H        -0.585408        -1.042394         2.480524
 H        -2.479360         0.893403         1.178294
 H        -0.662520        -0.219079        -0.692562
 H        -0.227893         1.512291        -0.750784
 H         2.075008        -0.442086         0.096680
 H        -0.708703         3.037282         0.909739
 H        -1.160521         2.688346         2.642831
