19
Iteration:  3039
 O         1.815930         2.632394         1.792764
 C         0.633489         1.820599         1.844541
 C         0.487414         1.115699         3.187886
 C        -0.428678         0.079796         2.302249
 C        -1.411598         0.884224         1.291513
 C        -0.545508         0.316301         0.039207
 C         0.618829         0.409492         1.096533
 O         1.840802        -0.135484         0.781655
 C        -0.755218         2.311649         1.552789
 H         1.661520         3.436333         1.296052
 H         1.430830         0.643400         3.615456
 H        -0.080890         1.763967         3.900606
 H        -0.658837        -1.010991         2.576249
 H        -2.438884         0.897732         1.480094
 H        -0.760551        -0.731190        -0.124752
 H        -0.589972         0.838251        -0.870376
 H         2.394795         0.595632         0.651341
 H        -0.732611         2.962297         0.683822
 H        -1.329186         2.782268         2.341099
