19
Iteration:  3573
 O         1.736947         2.618567         1.749644
 C         0.606244         1.892603         1.875761
 C         0.478558         1.022983         3.218544
 C        -0.315122         0.112362         2.268515
 C        -1.365554         0.892732         1.343279
 C        -0.571838         0.386111         0.071154
 C         0.565090         0.383604         1.100225
 O         1.866961        -0.195169         0.801804
 C        -0.769777         2.328411         1.465218
 H         1.478011         3.566799         1.635683
 H         1.545052         0.587471         3.411345
 H         0.028281         1.485307         4.144591
 H        -0.737773        -0.870955         2.523499
 H        -2.478330         0.774068         1.350306
 H        -0.807856        -0.618686        -0.327483
 H        -0.320826         0.952125        -0.868769
 H         2.571452         0.470125         0.929306
 H        -0.721673         2.978781         0.599890
 H        -1.165687         3.053801         2.182441
