19
Iteration:  3383
 O         1.709160         2.686676         1.621952
 C         0.588553         1.873426         1.927151
 C         0.438604         0.954581         3.177428
 C        -0.365791         0.105421         2.242978
 C        -1.280083         0.895823         1.321440
 C        -0.554181         0.452281         0.114926
 C         0.634238         0.353105         1.052860
 O         1.856953        -0.253536         0.888895
 C        -0.751987         2.408812         1.538734
 H         1.508221         3.336246         0.947411
 H         1.375548         0.461604         3.461817
 H        -0.176473         1.495097         4.044452
 H        -0.511568        -0.985128         2.406546
 H        -2.363814         0.819719         1.529603
 H        -0.789635        -0.563543        -0.305098
 H        -0.395751         1.203182        -0.751875
 H         2.432468         0.350122         1.364077
 H        -0.765517         3.129667         0.687073
 H        -1.297047         2.683574         2.450197
