19
Iteration:  4671charge 0 multiplicity 1
 O         1.543272         2.978812         1.735382
 C         0.655336         1.916558         1.780631
 C         0.381032         1.177374         3.102072
 C        -0.279400         0.071677         2.295795
 C        -1.257888         0.893150         1.348855
 C        -0.508722         0.266557         0.122296
 C         0.704763         0.258792         1.091713
 O         1.889158        -0.446449         0.976300
 C        -0.818748         2.388845         1.393697
 H         2.397598         2.781884         2.173575
 H         1.235922         0.702839         3.539309
 H        -0.014229         1.756916         3.867467
 H        -0.580884        -0.806060         2.785047
 H        -2.294012         0.823870         1.572254
 H        -1.253553        -0.533472        -0.221895
 H        -0.414162         0.966823        -0.787739
 H         2.202488        -0.496985         0.109704
 H        -0.909499         2.896001         0.422803
 H        -1.221463         3.103755         2.051077
