19
Iteration:  4818charge 0 multiplicity 1
 O         1.719159         2.810027         1.725137
 C         0.666452         1.805134         1.770852
 C         0.339582         1.168300         3.198979
 C        -0.412893         0.125053         2.378325
 C        -1.320102         0.845706         1.387887
 C        -0.510433         0.314340         0.153351
 C         0.712288         0.339001         1.076971
 O         1.864833        -0.259929         0.803982
 C        -0.740017         2.288078         1.350734
 H         1.192519         3.586462         1.462821
 H         1.148696         0.769667         3.826386
 H        -0.297144         1.758986         3.832223
 H        -0.566421        -0.970180         2.876124
 H        -2.466088         0.612138         1.279538
 H        -0.901192        -0.673525         0.051106
 H        -0.554184         1.076087        -0.693009
 H         2.724959         0.210606         1.067247
 H        -0.845650         2.602472         0.316138
 H        -1.007002         2.982108         2.221690
