19
Iteration:  2971
 O         1.740424         2.743848         1.825896
 C         0.666801         1.903876         1.834728
 C         0.579572         1.049760         3.107298
 C        -0.394367         0.103140         2.223233
 C        -1.334506         0.906220         1.300215
 C        -0.520652         0.390396         0.060111
 C         0.584159         0.381363         1.118778
 O         1.794736        -0.263681         0.795735
 C        -0.894201         2.313922         1.543432
 H         1.961595         3.219597         1.001407
 H         1.556255         0.580689         3.409545
 H         0.149009         1.608603         3.970550
 H        -0.724923        -0.942756         2.570436
 H        -2.483588         0.749869         1.400696
 H        -0.764403        -0.616607        -0.185813
 H        -0.144886         0.985071        -0.770037
 H         2.591751        -0.153235         1.480107
 H        -1.144325         3.108857         0.863480
 H        -1.220041         2.581681         2.572208
