19
Iteration:  2143
 O         1.731374         2.811893         1.881785
 C         0.703787         1.871409         1.923139
 C         0.415772         1.023974         3.186091
 C        -0.323652         0.027588         2.195602
 C        -1.353697         0.880369         1.312680
 C        -0.594663         0.369967         0.079235
 C         0.638939         0.425797         1.031092
 O         1.818572        -0.266991         0.716996
 C        -0.744291         2.320526         1.540252
 H         1.398565         3.635927         1.475618
 H         1.273463         0.472165         3.422509
 H         0.045059         1.612052         4.017270
 H        -0.632522        -1.006247         2.379656
 H        -2.490557         0.876631         1.259697
 H        -0.769167        -0.667093        -0.021412
 H        -0.648847         0.785564        -0.954249
 H         2.598126         0.226178         1.197196
 H        -0.625003         2.814177         0.602018
 H        -1.267402         2.882594         2.340176
