19
Iteration:   730charge 0 multiplicity 1
 O         1.798752         2.650411         1.763634
 C         0.650466         1.825624         1.862445
 C         0.503723         0.948113         3.071351
 C        -0.347216         0.062545         2.138296
 C        -1.372212         0.938620         1.353036
 C        -0.542022         0.519278         0.003413
 C         0.663709         0.463314         0.972515
 O         1.869425        -0.166219         0.942695
 C        -0.953534         2.303609         1.806053
 H         1.832003         2.895427         0.801413
 H         1.398932         0.397341         3.497901
 H        -0.026239         1.333880         3.954634
 H        -0.491949        -0.947313         2.410169
 H        -2.365213         0.838389         1.409986
 H        -0.891643        -0.500752        -0.285905
 H        -0.658839         1.295046        -0.868501
 H         2.264945        -0.077402        -0.005768
 H        -1.109389         3.054028         1.050021
 H        -1.287927         2.621183         2.774056
