19
Iteration:  2369charge 0 multiplicity 1
 O         1.824998         2.490551         1.659751
 C         0.626336         1.769558         1.783902
 C         0.427155         1.046754         3.095328
 C        -0.458365         0.110770         2.275034
 C        -1.341360         0.952116         1.304763
 C        -0.490053         0.337400         0.073453
 C         0.630997         0.379678         1.106627
 O         1.938211         0.024529         0.896995
 C        -0.874564         2.339610         1.653606
 H         1.641843         3.247054         1.081935
 H         1.315836         0.475294         3.415131
 H        -0.109942         1.700464         3.826080
 H        -0.769581        -0.841472         2.454073
 H        -2.436951         0.658589         1.301243
 H        -0.896501        -0.669314        -0.177510
 H        -0.532407         0.927705        -0.802006
 H         2.410519         0.678870         1.557576
 H        -1.080515         3.100491         0.826797
 H        -1.399824         2.633918         2.609011
