19
Iteration:  4346
 O         1.682605         2.815099         1.707513
 C         0.606455         1.885368         1.808324
 C         0.491483         1.094639         3.186153
 C        -0.294718         0.130641         2.318948
 C        -1.333080         0.897440         1.293905
 C        -0.513033         0.294198         0.154093
 C         0.649757         0.447275         1.099964
 O         1.804514        -0.374373         0.904962
 C        -0.811634         2.350612         1.341462
 H         1.436251         3.394951         2.472718
 H         1.458294         0.515085         3.470892
 H         0.050753         1.428135         4.160763
 H        -0.412119        -0.987377         2.467004
 H        -2.476201         0.717023         1.425778
 H        -0.630252        -0.809104         0.019104
 H        -0.737686         0.776057        -0.898560
 H         2.599560         0.091374         0.766755
 H        -0.724316         2.938363         0.330698
 H        -1.317255         3.069685         2.063393
