19
Iteration:  4258
 O         1.868697         2.626373         1.593887
 C         0.566057         1.777457         1.762384
 C         0.425718         1.090009         3.135192
 C        -0.399021         0.056766         2.335253
 C        -1.356578         0.929545         1.343389
 C        -0.525588         0.297311         0.093012
 C         0.572824         0.303247         1.102778
 O         1.886616        -0.034585         0.951324
 C        -0.793978         2.316447         1.466468
 H         1.886827         3.329909         2.285701
 H         1.365650         0.752590         3.634048
 H        -0.176223         1.523722         3.895261
 H        -0.840537        -0.834462         2.680001
 H        -2.480356         0.806363         1.281413
 H        -0.942600        -0.636870        -0.022593
 H        -0.376343         1.038051        -0.712212
 H         2.354072         0.833381         1.120932
 H        -0.865685         2.936622         0.497607
 H        -1.291017         2.912087         2.261547
