19
Iteration:  3352charge 0 multiplicity 1
 O         1.697786         2.754078         1.772503
 C         0.657981         1.792900         1.866714
 C         0.545899         1.031761         3.085300
 C        -0.381464         0.106506         2.328014
 C        -1.397426         0.901623         1.262528
 C        -0.545597         0.454177         0.071272
 C         0.623338         0.418929         1.050715
 O         1.779483        -0.283354         0.943662
 C        -0.712633         2.270343         1.489022
 H         1.458421         3.563403         1.267702
 H         1.454542         0.463386         3.337787
 H         0.129835         1.625272         4.013021
 H        -0.534317        -0.960551         2.618703
 H        -2.422890         0.990536         1.339308
 H        -0.644512        -0.579579        -0.193346
 H        -0.477503         1.070262        -0.823964
 H         2.420076         0.396267         0.608879
 H        -0.693638         3.006267         0.659334
 H        -1.225487         2.559586         2.392492
