19
Iteration:  2910
 O         1.778790         2.598559         1.740377
 C         0.623721         1.848019         1.922353
 C         0.362899         1.053087         3.208245
 C        -0.406725         0.073073         2.386638
 C        -1.375431         0.847902         1.328709
 C        -0.585828         0.408558         0.152754
 C         0.656963         0.342191         1.079396
 O         1.917862        -0.106789         0.662136
 C        -0.728009         2.324643         1.482721
 H         1.596082         3.499057         1.379075
 H         1.186594         0.630156         3.804665
 H        -0.200528         1.614582         3.958931
 H        -0.801404        -0.884251         2.723066
 H        -2.393115         0.748679         1.277803
 H        -0.862299        -0.552990        -0.392846
 H        -0.345447         1.069032        -0.721304
 H         2.447910         0.729415         0.666730
 H        -0.541742         2.830874         0.493895
 H        -1.214125         3.054798         2.155767
