19
Iteration:  1534
 O         1.783465         2.767394         1.854557
 C         0.721709         1.873587         1.858547
 C         0.353694         1.025807         3.181834
 C        -0.295866         0.019843         2.126199
 C        -1.289741         0.841590         1.327518
 C        -0.697492         0.382606         0.045195
 C         0.605642         0.504870         1.040526
 O         1.856921        -0.132914         0.813304
 C        -0.750888         2.277260         1.581141
 H         2.532941         2.297297         2.292435
 H         1.268201         0.721203         3.788056
 H        -0.328512         1.534112         3.869736
 H        -0.723168        -0.986625         2.258894
 H        -2.467894         0.789267         1.384222
 H        -0.787983        -0.722156         0.013836
 H        -0.837781         1.056875        -0.788841
 H         1.936867        -0.485554        -0.028344
 H        -0.838183         3.006691         0.717664
 H        -1.174695         2.928218         2.390870
