19
Iteration:   392
 O         1.679813         2.706709         1.809656
 C         0.621008         1.806016         1.870552
 C         0.502346         0.858773         3.178700
 C        -0.301708        -0.032805         2.159174
 C        -1.309995         0.908859         1.362741
 C        -0.602337         0.647654         0.019599
 C         0.589860         0.439958         1.003523
 O         1.885615        -0.052453         0.817446
 C        -0.816321         2.303812         1.626450
 H         2.418836         2.179199         1.461711
 H         1.457963         0.462298         3.436142
 H        -0.102291         1.250099         4.013281
 H        -0.615038        -1.057630         2.212223
 H        -2.297503         0.644020         1.475300
 H        -0.869262        -0.226772        -0.555900
 H        -0.565493         1.543359        -0.648603
 H         2.095568        -0.780126         1.342885
 H        -0.811610         2.848170         0.706743
 H        -1.368083         2.882913         2.389389
