19
Iteration:  2106
 O         1.589208         2.833062         1.741823
 C         0.625059         1.858324         1.915516
 C         0.538889         1.033969         3.103404
 C        -0.348427        -0.012937         2.150706
 C        -1.305082         0.951321         1.278437
 C        -0.423774         0.600236        -0.028636
 C         0.657731         0.421573         1.056299
 O         1.777407        -0.458286         0.944978
 C        -0.800192         2.280920         1.731628
 H         1.282937         3.545284         1.156679
 H         1.389555         0.376522         3.441699
 H         0.289483         1.532421         4.039723
 H        -0.505701        -1.063870         2.422179
 H        -2.359609         0.673627         1.297747
 H        -0.836068        -0.440976        -0.359565
 H        -0.221524         1.385232        -0.845961
 H         2.536536         0.007439         0.418314
 H        -0.945575         2.987326         0.886815
 H        -1.245385         2.782032         2.587428
