19
Iteration:  2779charge 0 multiplicity 1
 O         1.679606         2.838933         1.859724
 C         0.603592         1.916584         1.829497
 C         0.372190         1.114205         3.169016
 C        -0.322980         0.043226         2.251588
 C        -1.301550         0.853103         1.382628
 C        -0.524671         0.441514         0.091753
 C         0.662506         0.389927         1.055412
 O         1.883421        -0.283293         0.834736
 C        -0.748287         2.250403         1.473388
 H         2.326384         2.619040         1.142568
 H         1.366602         0.913004         3.621460
 H        -0.386687         1.589551         3.760909
 H        -0.477625        -0.975803         2.659698
 H        -2.307286         0.707675         1.330494
 H        -0.948578        -0.578202        -0.196248
 H        -0.514269         1.225678        -0.722011
 H         1.637101        -0.827693         0.057669
 H        -0.899205         2.745732         0.489177
 H        -1.105747         2.978034         2.232497
