19
Iteration:   958charge 0 multiplicity 1
 O         1.768746         2.713837         1.987505
 C         0.684556         1.850603         1.950359
 C         0.409527         0.967311         3.179125
 C        -0.368968         0.032866         2.229439
 C        -1.333603         0.959481         1.306349
 C        -0.596041         0.349248         0.093784
 C         0.635836         0.382282         1.017474
 O         1.777168        -0.147357         0.479540
 C        -0.698580         2.352315         1.570396
 H         1.433280         3.510315         2.447818
 H         1.376863         0.532880         3.539366
 H         0.050991         1.364792         4.075291
 H        -0.814096        -0.934064         2.521535
 H        -2.325154         0.892861         1.479653
 H        -0.829216        -0.693387         0.011943
 H        -0.379312         0.766051        -0.832869
 H         2.553034         0.428836         0.645880
 H        -0.654344         2.890911         0.675243
 H        -1.353482         2.834376         2.306314
