19
Iteration:  1689
 O         1.729847         2.715985         1.938368
 C         0.652995         1.868608         1.942591
 C         0.320453         1.016921         3.209319
 C        -0.268046         0.064176         2.188161
 C        -1.318682         0.844784         1.360418
 C        -0.610663         0.436404         0.089506
 C         0.626892         0.425009         0.996862
 O         1.928933        -0.118608         0.605651
 C        -0.738499         2.355869         1.607281
 H         2.389964         2.450897         1.282441
 H         1.089259         0.606933         3.803240
 H        -0.478067         1.494466         3.802735
 H        -0.497521        -0.963255         2.519213
 H        -2.341024         0.803398         1.506970
 H        -1.011830        -0.538557        -0.095485
 H        -0.814904         1.063463        -0.786849
 H         1.738334        -1.011293         0.098334
 H        -0.799656         2.782064         0.562721
 H        -1.193977         3.012891         2.392420
