19
Iteration:  2969
 O         1.740138         2.737793         1.830979
 C         0.688667         1.920915         1.853275
 C         0.580491         1.048754         3.115509
 C        -0.389513         0.091753         2.231631
 C        -1.352243         0.915100         1.310325
 C        -0.536280         0.392408         0.042169
 C         0.603443         0.377982         1.111908
 O         1.806088        -0.266987         0.798169
 C        -0.915559         2.318223         1.533073
 H         1.937806         3.158332         0.998486
 H         1.547995         0.589258         3.327415
 H         0.140083         1.618036         3.957083
 H        -0.712309        -0.929070         2.486577
 H        -2.536719         0.783093         1.389532
 H        -0.756804        -0.693687        -0.108641
 H        -0.101914         0.924706        -0.864933
 H         2.551903        -0.139783         1.453098
 H        -1.217798         3.134351         0.853809
 H        -1.158517         2.629016         2.580562
