19
Iteration:  4672charge 0 multiplicity 1
 O         1.544787         2.979453         1.734986
 C         0.651670         1.918658         1.786439
 C         0.379519         1.187319         3.101325
 C        -0.279840         0.070009         2.293465
 C        -1.265696         0.890154         1.343190
 C        -0.513848         0.263495         0.116979
 C         0.705864         0.249684         1.090705
 O         1.884626        -0.442635         0.977219
 C        -0.813184         2.388962         1.399652
 H         2.406740         2.769204         2.160295
 H         1.244774         0.720582         3.546432
 H        -0.004370         1.741892         3.850920
 H        -0.549718        -0.834075         2.793523
 H        -2.262609         0.822346         1.571786
 H        -1.214418        -0.517930        -0.195641
 H        -0.386814         0.994824        -0.747893
 H         2.210104        -0.495701         0.095411
 H        -0.888426         2.878430         0.405681
 H        -1.217485         3.100960         2.062139
