19
Iteration:  3402charge 0 multiplicity 1
 O         1.804829         2.647407         1.688983
 C         0.663941         1.754439         1.819994
 C         0.325730         1.126291         3.212251
 C        -0.294551         0.024276         2.255469
 C        -1.394358         0.961146         1.384869
 C        -0.541546         0.414531         0.033250
 C         0.649521         0.436751         1.063284
 O         1.885861        -0.198639         0.829764
 C        -0.823230         2.326930         1.647048
 H         1.801414         3.107879         0.834460
 H         1.166478         0.727124         3.744761
 H        -0.373863         1.618575         3.801870
 H        -0.717010        -0.978120         2.400353
 H        -2.491751         0.643098         1.160941
 H        -0.950643        -0.636830        -0.101617
 H        -0.682297         0.998743        -0.927438
 H         2.647658         0.420340         1.062045
 H        -0.823850         2.864208         0.682301
 H        -1.061381         2.906580         2.566765
