19
Iteration:  2334charge 0 multiplicity 1
 O         1.722852         2.737699         1.863392
 C         0.689419         1.824490         1.899205
 C         0.424009         1.031969         3.183927
 C        -0.286777         0.088972         2.228648
 C        -1.298916         0.887454         1.322104
 C        -0.597206         0.380028         0.122280
 C         0.616421         0.426455         1.085742
 O         1.805997        -0.204937         0.813061
 C        -0.786540         2.288390         1.418465
 H         1.646862         3.230739         1.026010
 H         1.266549         0.592124         3.801064
 H        -0.106437         1.655546         3.905806
 H        -0.481814        -0.951546         2.341968
 H        -2.384599         0.783093         1.469114
 H        -0.706910        -0.728858        -0.066866
 H        -0.819003         0.998268        -0.802829
 H         2.529632         0.403766         0.528723
 H        -0.562531         2.731861         0.378855
 H        -1.382219         3.012818         1.995692
