19
Iteration:  3989
 O         1.736897         2.594102         1.468700
 C         0.602787         1.825654         1.855510
 C         0.384605         1.018446         3.191228
 C        -0.346884         0.044396         2.249851
 C        -1.322260         0.907887         1.310986
 C        -0.463406         0.421805         0.113586
 C         0.646125         0.422781         1.113591
 O         1.882549        -0.167674         1.011880
 C        -0.833973         2.377857         1.578080
 H         1.534439         3.484900         1.821690
 H         1.374249         0.578622         3.489771
 H        -0.059447         1.518011         4.048995
 H        -0.591678        -0.975935         2.462205
 H        -2.378360         0.652041         1.471440
 H        -0.811823        -0.463812        -0.380788
 H        -0.519016         1.081963        -0.691387
 H         2.438827         0.597641         0.605943
 H        -0.811817         2.981686         0.652496
 H        -1.500760         2.875372         2.389617
