19
Iteration:  3870
 O         1.596955         2.827660         1.683861
 C         0.642718         1.927450         1.931534
 C         0.528572         1.035629         3.167746
 C        -0.348603         0.132848         2.191253
 C        -1.326564         0.934272         1.302453
 C        -0.570055         0.379055         0.089102
 C         0.662953         0.387487         1.026197
 O         1.847492        -0.336053         1.003793
 C        -0.794686         2.300662         1.492392
 H         2.485801         2.497519         1.855358
 H         1.508805         0.529040         3.298717
 H         0.055621         1.213765         4.123265
 H        -0.637698        -0.877479         2.396031
 H        -2.400430         0.812663         1.428121
 H        -0.875393        -0.642074        -0.255935
 H        -0.663361         0.900954        -0.940238
 H         2.531608         0.164102         0.432325
 H        -0.715366         2.800634         0.528544
 H        -1.354557         2.960425         2.244894
