19
Iteration:   711charge 0 multiplicity 1
 O         1.728143         2.617152         1.731948
 C         0.611103         1.816958         1.914384
 C         0.442003         0.898722         3.209757
 C        -0.268211        -0.017950         2.163181
 C        -1.352045         0.937848         1.321264
 C        -0.605685         0.497542         0.033615
 C         0.574467         0.495053         1.060080
 O         1.854285        -0.130265         0.830191
 C        -0.724284         2.359098         1.657896
 H         1.823466         3.061468         0.871947
 H         1.459534         0.471035         3.446973
 H         0.129263         1.318095         4.143811
 H        -0.597055        -1.005194         2.282585
 H        -2.514695         0.619513         1.422417
 H        -0.938068        -0.494103        -0.258522
 H        -0.589853         1.226478        -0.811721
 H         2.511881         0.671194         0.706334
 H        -0.866120         3.171079         0.856704
 H        -1.279500         2.707272         2.542273
