19
Iteration:  4994charge 0 multiplicity 1
 O         1.612847         2.940627         1.631124
 C         0.657777         1.844982         1.868999
 C         0.413748         1.118699         3.292624
 C        -0.318022         0.115438         2.298008
 C        -1.341627         0.860647         1.241138
 C        -0.523071         0.281228         0.077376
 C         0.578131         0.379227         1.108991
 O         1.870944        -0.311998         0.959230
 C        -0.716895         2.290354         1.417442
 H         2.461753         2.508329         1.859571
 H         1.289617         0.671995         3.679522
 H        -0.094640         1.721128         3.984766
 H        -0.523555        -0.825392         2.668141
 H        -2.433524         0.768813         1.273419
 H        -0.738394        -0.784531         0.005154
 H        -0.624211         0.732722        -0.978469
 H         2.420076         0.129869         0.333299
 H        -0.598542         2.811479         0.526878
 H        -1.320279         2.914721         2.065184
