19
Iteration:  1015charge 0 multiplicity 1
 O         1.815121         2.601493         1.712267
 C         0.633036         1.790917         1.826001
 C         0.448614         0.857650         3.194082
 C        -0.252143         0.020883         2.128655
 C        -1.391589         0.916481         1.316253
 C        -0.631487         0.570387         0.015146
 C         0.609113         0.489513         0.967889
 O         1.868998        -0.087289         0.909365
 C        -0.827206         2.361735         1.794855
 H         1.926359         2.898699         0.784548
 H         1.460208         0.305365         3.504903
 H        -0.184229         1.222570         4.040824
 H        -0.638258        -1.114295         2.213018
 H        -2.509946         0.630310         1.281688
 H        -1.066410        -0.355780        -0.424845
 H        -0.554838         1.233910        -0.862600
 H         2.664097         0.412226         1.373697
 H        -1.165473         3.082926         1.028959
 H        -1.346201         2.755455         2.715978
