19
Iteration:  3256charge 0 multiplicity 1
 O         1.734124         2.662967         1.702924
 C         0.652939         1.794480         1.838801
 C         0.439153         1.002351         3.179458
 C        -0.315814         0.063841         2.212310
 C        -1.343146         0.991480         1.348869
 C        -0.582797         0.390717         0.074790
 C         0.589506         0.449422         1.063420
 O         1.900326        -0.198917         0.901725
 C        -0.786985         2.344798         1.494260
 H         1.463677         3.440424         1.160183
 H         1.309882         0.466548         3.555051
 H         0.000367         1.456522         3.998513
 H        -0.556351        -1.003150         2.412228
 H        -2.361052         0.748863         1.459802
 H        -0.924206        -0.633325         0.184071
 H        -0.699956         0.843612        -0.963274
 H         2.440677         0.344340         1.412084
 H        -0.823300         3.093192         0.660714
 H        -1.244813         2.758660         2.415446
