19
Iteration:  4350
 O         1.703694         2.822034         1.712539
 C         0.599819         1.918773         1.806996
 C         0.465037         1.077466         3.189201
 C        -0.255045         0.109212         2.326300
 C        -1.350766         0.910129         1.301730
 C        -0.503646         0.270277         0.148546
 C         0.633279         0.428344         1.088563
 O         1.785997        -0.372034         0.903151
 C        -0.817856         2.375637         1.322532
 H         1.396508         3.343190         2.468201
 H         1.443231         0.723273         3.406150
 H         0.029486         1.293559         4.139754
 H        -0.346553        -1.011742         2.409054
 H        -2.396358         0.759285         1.373007
 H        -0.631355        -0.849779         0.158401
 H        -0.683583         0.817937        -0.729782
 H         2.671253         0.100461         0.755209
 H        -0.720537         2.897329         0.437691
 H        -1.265036         3.036627         2.035998
