19
Iteration:  4280charge 0 multiplicity 1
 O         1.782869         2.465734         1.454368
 C         0.582997         1.825138         1.896294
 C         0.385415         1.108803         3.237041
 C        -0.365896         0.134149         2.262429
 C        -1.383337         0.796158         1.287869
 C        -0.590518         0.399055         0.021366
 C         0.634677         0.526311         1.156977
 O         1.907363        -0.059283         1.024502
 C        -0.789632         2.279191         1.497293
 H         2.202591         2.943684         2.181082
 H         1.299981         0.531222         3.558629
 H         0.056121         1.626283         4.117291
 H        -0.445188        -0.881793         2.591402
 H        -2.524146         0.781553         1.410113
 H        -0.558743        -0.643297        -0.081305
 H        -0.510396         1.150472        -0.781952
 H         2.497174         0.780562         0.846922
 H        -0.774041         2.852941         0.490510
 H        -1.389123         2.910413         2.202685
