19
Iteration:   587
 O         1.745950         2.731474         1.680881
 C         0.621691         1.822483         1.928901
 C         0.552439         0.767804         3.140243
 C        -0.342596         0.043332         2.131233
 C        -1.388907         0.999728         1.288484
 C        -0.519172         0.552750         0.026489
 C         0.613674         0.450085         1.027003
 O         1.833393        -0.170053         0.922578
 C        -0.851820         2.327775         1.767944
 H         1.624084         3.313296         0.909167
 H         1.341303         0.049076         3.265616
 H         0.106458         1.008453         4.129358
 H        -0.713085        -1.035769         2.275817
 H        -2.350439         0.789042         1.451407
 H        -0.890240        -0.478351        -0.196130
 H        -0.391052         1.108828        -0.947426
 H         2.534988         0.326750         0.449652
 H        -0.955096         3.119124         1.061580
 H        -1.213972         2.641082         2.742253
