19
Iteration:   181charge 0 multiplicity 1
 O         1.772327         2.662651         1.904632
 C         0.608491         1.835162         1.954939
 C         0.440707         0.934247         3.206686
 C        -0.290372        -0.010741         2.252713
 C        -1.398490         0.858477         1.310134
 C        -0.556840         0.485259         0.018026
 C         0.596204         0.445609         0.991140
 O         1.843013        -0.049406         0.715798
 C        -0.787918         2.359955         1.487456
 H         2.450081         2.266115         2.509282
 H         1.445603         0.389703         3.397523
 H        -0.071532         1.325101         4.141745
 H        -0.778866        -1.071350         2.549389
 H        -2.540445         0.733969         1.407154
 H        -0.601938        -0.637083        -0.303642
 H        -0.655185         1.150560        -0.852830
 H         2.307438         0.556055         0.123798
 H        -0.861464         3.026645         0.587063
 H        -1.295960         2.946370         2.375367
