19
Iteration:  1160charge 0 multiplicity 1
 O         1.734868         2.649458         1.621102
 C         0.723471         1.736268         1.922617
 C         0.402089         0.948074         3.234269
 C        -0.330717         0.020658         2.118812
 C        -1.373779         0.886687         1.368712
 C        -0.518674         0.614003        -0.002792
 C         0.608682         0.476585         1.030935
 O         1.847953        -0.176934         0.824567
 C        -0.776981         2.291518         1.781412
 H         1.239496         3.306739         1.108769
 H         1.239963         0.407517         3.532986
 H        -0.246445         1.451721         3.968227
 H        -0.497890        -0.967736         2.348232
 H        -2.426913         0.846087         1.368353
 H        -0.721586        -0.384163        -0.371403
 H        -0.421106         1.317710        -0.879728
 H         2.510536         0.475613         1.181581
 H        -1.019838         3.022633         0.977603
 H        -1.199758         2.659288         2.699386
