19
Iteration:   661
 O         1.806705         2.606938         1.958302
 C         0.660418         1.818223         1.926252
 C         0.372198         1.030959         3.218720
 C        -0.284589         0.122210         2.298331
 C        -1.330894         0.938302         1.344692
 C        -0.567691         0.324127         0.093998
 C         0.589577         0.449106         1.041137
 O         1.823985        -0.104812         0.427636
 C        -0.759683         2.353864         1.563242
 H         1.497715         3.530233         1.822129
 H         1.241020         0.742833         3.771404
 H        -0.393364         1.585527         3.877072
 H        -0.522609        -1.035330         2.423695
 H        -2.407144         0.761270         1.243611
 H        -0.680670        -0.807393         0.061072
 H        -0.508176         0.857726        -0.883213
 H         2.449474        -0.285360         1.082053
 H        -0.990397         2.859429         0.643815
 H        -1.336785         2.705900         2.454327
