19
Iteration:  4973charge 0 multiplicity 1
 O         1.678350         2.777174         1.698941
 C         0.596935         1.885615         1.790647
 C         0.414801         1.135950         3.090857
 C        -0.307123         0.111004         2.281840
 C        -1.335624         0.825564         1.410016
 C        -0.555362         0.313712         0.138019
 C         0.603451         0.401676         1.133403
 O         1.899393        -0.249044         0.983717
 C        -0.800929         2.316451         1.304157
 H         2.532626         2.416470         2.003478
 H         1.314217         0.845891         3.482392
 H        -0.079936         1.577822         3.922439
 H        -0.581092        -0.819685         2.619391
 H        -2.405668         0.655660         1.482450
 H        -0.678873        -0.717647        -0.177763
 H        -0.593608         1.050117        -0.805221
 H         2.672066         0.364326         0.890738
 H        -0.957451         2.727180         0.316554
 H        -1.279834         2.959827         2.072437
