19
Iteration:  4950
 O         1.736061         2.658592         1.617768
 C         0.607768         1.821363         1.786921
 C         0.379638         1.203931         3.168789
 C        -0.327422         0.126764         2.320760
 C        -1.342528         0.871392         1.290874
 C        -0.565092         0.219904         0.104237
 C         0.624097         0.414983         1.085037
 O         1.914184        -0.135104         0.973208
 C        -0.824448         2.299644         1.464247
 H         2.255655         2.771817         2.438878
 H         1.234097         0.854634         3.621191
 H        -0.099317         1.772758         3.903780
 H        -0.482958        -0.890806         2.592331
 H        -2.435851         0.707113         1.251289
 H        -0.913896        -0.783862        -0.094068
 H        -0.463416         0.821586        -0.917638
 H         2.621199         0.485784         0.759196
 H        -0.962147         2.873863         0.563218
 H        -1.197499         2.901963         2.286955
