19
Iteration:  2189charge 0 multiplicity 1
 O         1.922918         2.492618         1.856722
 C         0.589357         1.835100         1.920947
 C         0.301211         1.115386         3.243139
 C        -0.425650         0.091060         2.277880
 C        -1.379469         0.815146         1.289692
 C        -0.549160         0.268658         0.134289
 C         0.628746         0.463152         1.064073
 O         1.895538         0.085886         0.614059
 C        -0.795402         2.354762         1.513394
 H         2.045966         2.496408         0.880960
 H         1.236104         0.778613         3.755597
 H        -0.431911         1.624058         3.880815
 H        -0.587990        -1.044620         2.536124
 H        -2.370974         0.446290         1.374811
 H        -0.715246        -0.759163        -0.100518
 H        -0.679033         0.818294        -0.763605
 H         2.518345         0.695455         1.201005
 H        -0.767527         2.872736         0.516662
 H        -1.188674         2.888879         2.379240
