19
Iteration:  1663
 O         1.690311         2.767284         1.803630
 C         0.639116         1.804508         1.895806
 C         0.473433         0.875050         3.186645
 C        -0.360176         0.059919         2.256584
 C        -1.340578         0.949621         1.219862
 C        -0.426218         0.492204         0.025315
 C         0.615595         0.452815         1.096016
 O         1.843610        -0.136048         0.738648
 C        -0.817401         2.317903         1.693083
 H         2.007290         2.882749         0.896030
 H         1.509899         0.438909         3.348676
 H         0.049448         1.317435         4.102349
 H        -0.726201        -0.872172         2.678646
 H        -2.518105         0.922196         1.410001
 H        -0.826967        -0.477768        -0.327371
 H        -0.432835         1.076288        -0.869132
 H         1.633465        -1.116797         0.530723
 H        -0.853479         3.117709         0.889176
 H        -1.201872         2.587017         2.702446
