19
Iteration:  2349
 O         1.840138         2.665643         1.764841
 C         0.605969         1.874188         1.888761
 C         0.369406         1.033844         3.209956
 C        -0.339281         0.051281         2.211401
 C        -1.390389         0.888131         1.296502
 C        -0.605003         0.261068         0.067647
 C         0.623638         0.481920         1.017965
 O         1.894869        -0.135674         0.856998
 C        -0.761393         2.367825         1.540039
 H         1.742334         3.258757         0.992394
 H         1.325854         0.609339         3.414015
 H        -0.293426         1.396486         4.026981
 H        -0.590697        -0.964971         2.568672
 H        -2.497775         0.759926         1.383943
 H        -0.859661        -0.777038         0.026847
 H        -0.534624         0.652008        -0.879707
 H         2.592357         0.598575         1.066117
 H        -0.942195         3.038328         0.689610
 H        -1.147083         2.837290         2.490451
