19
Iteration:  4073
 O         1.749626         2.747422         1.702448
 C         0.667735         1.921668         1.893887
 C         0.410626         1.077418         3.236172
 C        -0.372441         0.133909         2.312288
 C        -1.361253         0.845193         1.296453
 C        -0.571699         0.284467         0.099177
 C         0.647509         0.502795         1.029248
 O         1.826309        -0.258259         0.848161
 C        -0.746149         2.266993         1.385685
 H         1.937226         3.335664         2.453764
 H         1.383956         0.518718         3.486481
 H        -0.040850         1.474693         4.120736
 H        -0.551737        -0.863419         2.511725
 H        -2.448938         0.682254         1.485694
 H        -0.741828        -0.719847         0.322625
 H        -0.714740         0.832735        -0.878954
 H         2.555290         0.354887         0.757528
 H        -0.746725         2.746636         0.403061
 H        -1.353757         2.810079         2.001370
