19
Iteration:  3750charge 0 multiplicity 1
 O         1.684494         2.758773         1.773652
 C         0.632501         1.808006         1.846425
 C         0.410582         1.096995         3.070527
 C        -0.334520         0.063690         2.271240
 C        -1.314689         0.935927         1.368234
 C        -0.620868         0.346997         0.143047
 C         0.627832         0.409648         1.073040
 O         1.947601        -0.213744         0.885465
 C        -0.812305         2.371482         1.397252
 H         2.483132         2.290538         2.139955
 H         1.285785         0.485480         3.441356
 H        -0.135746         1.480134         3.909533
 H        -0.541284        -0.911636         2.582445
 H        -2.380973         0.799866         1.648353
 H        -0.916195        -0.735013         0.059627
 H        -0.728517         0.831301        -0.918932
 H         2.470015         0.403394         0.402543
 H        -0.806344         2.788353         0.446349
 H        -1.321081         2.849624         2.221163
