19
Iteration:  1736charge 0 multiplicity 1
 O         1.718420         2.637942         1.770913
 C         0.616144         1.778948         1.965177
 C         0.444282         0.938776         3.212372
 C        -0.363763         0.053269         2.322571
 C        -1.333145         0.972152         1.299609
 C        -0.600017         0.338100         0.049750
 C         0.568492         0.463784         0.983202
 O         1.959907         0.063445         0.681777
 C        -0.774325         2.361708         1.570909
 H         2.439308         2.487012         2.415872
 H         1.383535         0.290976         3.278551
 H         0.080294         1.192693         4.192343
 H        -0.929919        -0.882339         2.598581
 H        -2.443781         0.905601         1.457000
 H        -0.851963        -0.777312        -0.022989
 H        -0.534169         0.897431        -0.984409
 H         1.860450        -0.814977         0.295852
 H        -0.739987         3.107137         0.739975
 H        -1.221065         2.895417         2.452068
