19
Iteration:  2881
 O         1.844680         2.519382         1.634389
 C         0.615492         1.859478         1.839787
 C         0.401244         1.030043         3.193982
 C        -0.346043         0.080988         2.307331
 C        -1.403904         0.877601         1.284172
 C        -0.529330         0.334007         0.107662
 C         0.624913         0.489368         1.029208
 O         1.838125        -0.067711         0.824188
 C        -0.833983         2.361193         1.606464
 H         1.859211         3.347830         2.123923
 H         1.251915         0.601157         3.697748
 H        -0.181130         1.618310         3.971401
 H        -0.580945        -0.944177         2.412143
 H        -2.559543         0.670821         1.216279
 H        -0.723983        -0.763055         0.073948
 H        -0.291770         0.682893        -0.925898
 H         2.547163         0.685096         0.974561
 H        -0.756560         2.997316         0.704298
 H        -1.243836         2.868544         2.497840
