19
Iteration:  3374
 O         1.707364         2.744742         1.641850
 C         0.626588         1.821165         1.878753
 C         0.533173         0.961248         3.194352
 C        -0.389826         0.081975         2.267968
 C        -1.361566         0.917955         1.346358
 C        -0.462893         0.437083         0.052496
 C         0.585168         0.372412         1.094369
 O         1.812712        -0.252451         0.912331
 C        -0.788180         2.381009         1.529503
 H         1.459054         3.467554         1.058447
 H         1.421915         0.319351         3.336657
 H         0.229405         1.374141         4.253667
 H        -0.741227        -0.967590         2.331568
 H        -2.332054         0.638167         1.189596
 H        -0.831686        -0.476668        -0.360738
 H        -0.459173         1.208246        -0.704710
 H         2.488167         0.322427         1.285646
 H        -0.620910         2.928293         0.600051
 H        -1.260858         3.018992         2.295778
