19
Iteration:  1014charge 0 multiplicity 1
 O         1.816172         2.600116         1.718639
 C         0.637705         1.789921         1.827407
 C         0.444253         0.860331         3.194024
 C        -0.252646         0.019718         2.121891
 C        -1.390391         0.917464         1.320220
 C        -0.638488         0.566004         0.017311
 C         0.609253         0.488703         0.966243
 O         1.867558        -0.086088         0.905802
 C        -0.833018         2.361614         1.790316
 H         1.934157         2.884681         0.786714
 H         1.431049         0.328109         3.557055
 H        -0.164796         1.219048         4.011625
 H        -0.625056        -1.112198         2.208603
 H        -2.465095         0.639170         1.292878
 H        -1.028562        -0.363674        -0.423000
 H        -0.552114         1.235816        -0.824357
 H         2.655376         0.449789         1.332273
 H        -1.151777         3.051399         1.012782
 H        -1.302633         2.787431         2.722171
