19
Iteration:  4226charge 0 multiplicity 1
 O         1.753074         2.763683         1.674190
 C         0.604891         1.826871         1.906678
 C         0.394012         1.136249         3.305542
 C        -0.321443         0.181373         2.278204
 C        -1.333132         0.846151         1.285103
 C        -0.546450         0.303173         0.152096
 C         0.671168         0.480090         1.039462
 O         1.810705        -0.302564         0.787717
 C        -0.780118         2.252812         1.396274
 H         1.661002         3.328233         2.474611
 H         1.328894         0.861598         3.845911
 H        -0.270937         1.696807         3.875175
 H        -0.512799        -0.831439         2.539875
 H        -2.458703         0.882010         1.224294
 H        -0.646864        -0.746178         0.029901
 H        -0.643574         0.707574        -0.855779
 H         2.693887         0.077806         1.028958
 H        -0.585035         2.836519         0.468756
 H        -1.268988         2.872858         2.124215
