19
Iteration:  3871
 O         1.593594         2.826017         1.691909
 C         0.646192         1.926254         1.921241
 C         0.531358         1.037024         3.162040
 C        -0.337667         0.123490         2.196977
 C        -1.331817         0.931045         1.295853
 C        -0.573160         0.387878         0.094958
 C         0.660389         0.371096         1.033462
 O         1.846949        -0.332787         1.001324
 C        -0.790759         2.309200         1.483950
 H         2.500917         2.513046         1.874925
 H         1.499405         0.557103         3.324608
 H         0.028293         1.236518         4.133578
 H        -0.662283        -0.922511         2.433668
 H        -2.395841         0.808626         1.454151
 H        -0.889187        -0.634290        -0.273163
 H        -0.683019         0.906020        -0.955677
 H         2.540322         0.201038         0.421676
 H        -0.732899         2.845041         0.540445
 H        -1.330257         2.959245         2.213642
