19
Iteration:  1919charge 0 multiplicity 1
 O         1.688528         2.790433         1.735608
 C         0.630361         1.811215         1.892701
 C         0.470976         0.845533         3.196592
 C        -0.334017        -0.003533         2.195960
 C        -1.376395         0.951815         1.329155
 C        -0.552986         0.482157         0.067992
 C         0.631640         0.438804         1.100266
 O         1.924881        -0.103533         0.864115
 C        -0.781207         2.354925         1.604462
 H         1.839492         2.949672         0.790899
 H         1.482430         0.443423         3.490010
 H        -0.052597         1.239462         4.067420
 H        -0.767868        -1.044107         2.372347
 H        -2.427413         0.773348         1.438993
 H        -0.901041        -0.548118        -0.356139
 H        -0.340562         1.082612        -0.849161
 H         1.776735        -0.964723         0.307989
 H        -0.717826         2.980276         0.676588
 H        -1.375655         2.927429         2.346126
