19
Iteration:  1831charge 0 multiplicity 1
 O         1.698856         2.794767         1.885970
 C         0.741618         1.800892         1.903728
 C         0.427825         0.992447         3.224514
 C        -0.343494         0.088192         2.165555
 C        -1.373515         0.920296         1.279865
 C        -0.651901         0.336373         0.056196
 C         0.602121         0.369169         0.988191
 O         1.900016        -0.047611         0.748462
 C        -0.712622         2.288587         1.640517
 H         2.190858         2.937238         1.063521
 H         1.287298         0.491302         3.609859
 H        -0.017464         1.553882         4.052234
 H        -0.642394        -0.916370         2.523465
 H        -2.370673         0.729717         1.307844
 H        -1.047465        -0.664490        -0.047737
 H        -0.510239         0.887458        -0.820749
 H         1.885865        -0.988305         0.303956
 H        -0.749562         3.088456         0.880263
 H        -1.299539         2.776319         2.393403
