19
Iteration:  4618charge 0 multiplicity 1
 O         1.681272         2.783429         1.570981
 C         0.602625         1.860279         1.765346
 C         0.391225         1.128085         3.232767
 C        -0.350124         0.109396         2.305412
 C        -1.360750         0.839055         1.297799
 C        -0.481836         0.325673         0.125198
 C         0.661647         0.381709         1.124886
 O         1.875762        -0.222949         1.003201
 C        -0.813750         2.304525         1.424858
 H         2.459357         2.291882         1.913978
 H         1.415574         0.792019         3.615078
 H        -0.254912         1.581035         3.964227
 H        -0.629702        -0.870487         2.670591
 H        -2.347707         0.835129         1.628891
 H        -0.733051        -0.625161        -0.278857
 H        -0.473261         0.941427        -0.768213
 H         2.515232         0.334642         0.605195
 H        -0.882046         2.818243         0.423747
 H        -1.190205         2.939249         2.236909
