19
Iteration:  4456
 O         1.773639         2.661633         1.495515
 C         0.648577         1.791526         1.736736
 C         0.403335         1.129549         3.169696
 C        -0.385823         0.082859         2.275236
 C        -1.353123         0.848208         1.314585
 C        -0.576180         0.326583         0.088868
 C         0.624219         0.387514         1.093792
 O         1.927335        -0.117916         1.109595
 C        -0.802651         2.317280         1.535391
 H         1.787843         3.434085         2.073057
 H         1.307060         0.512639         3.467243
 H        -0.208141         1.690032         3.915457
 H        -0.841440        -0.866006         2.678749
 H        -2.410278         0.518955         1.447257
 H        -0.960312        -0.481367        -0.417886
 H        -0.446041         0.991552        -0.799867
 H         2.398842         0.657942         0.864809
 H        -0.839725         2.849060         0.531911
 H        -1.112763         2.774159         2.498226
