19
Iteration:  4564
 O         1.778821         2.684715         1.509794
 C         0.641230         1.863601         1.861043
 C         0.426227         1.097109         3.184563
 C        -0.418998         0.107123         2.330657
 C        -1.355098         0.816369         1.258940
 C        -0.502673         0.281405         0.121749
 C         0.578211         0.432685         1.165266
 O         1.819384        -0.104930         0.985484
 C        -0.775395         2.315113         1.431967
 H         2.460985         2.762921         2.194063
 H         1.353690         0.517995         3.502318
 H        -0.150119         1.598380         3.999919
 H        -0.418227        -0.949728         2.610925
 H        -2.426881         0.700427         1.314836
 H        -0.601694        -0.782162         0.085792
 H        -0.461302         0.861081        -0.797138
 H         2.284981         0.717688         0.862035
 H        -0.807416         2.794601         0.393322
 H        -1.346507         2.931207         2.169441
