19
Iteration:  3003charge 0 multiplicity 1
 O         1.683476         2.744329         1.689257
 C         0.644457         1.789337         1.903261
 C         0.430834         1.045661         3.288996
 C        -0.373653         0.034032         2.202805
 C        -1.338840         0.920764         1.385474
 C        -0.551007         0.503012         0.079357
 C         0.626461         0.456696         1.111139
 O         1.880433        -0.302967         0.742399
 C        -0.697446         2.297357         1.494814
 H         1.447093         3.332494         0.970963
 H         1.195617         0.707146         3.979222
 H        -0.315328         1.597586         3.910947
 H        -0.545220        -1.033904         2.551204
 H        -2.480327         0.798939         1.598538
 H        -0.828726        -0.454588        -0.293294
 H        -0.425890         1.184077        -0.799422
 H         2.601538        -0.071492         1.269653
 H        -0.756731         2.819366         0.545002
 H        -1.215397         2.879795         2.282060
