19
Iteration:  4021
 O         1.751976         2.783040         1.567489
 C         0.656865         1.830993         1.893471
 C         0.411131         1.088955         3.228862
 C        -0.327188         0.128053         2.238842
 C        -1.395106         0.862272         1.282383
 C        -0.487180         0.405539         0.032470
 C         0.688416         0.435599         1.099674
 O         1.831992        -0.343018         0.946292
 C        -0.827148         2.274110         1.549276
 H         1.485244         3.589224         2.071276
 H         1.367511         0.562563         3.576658
 H        -0.053412         1.662118         4.037126
 H        -0.520571        -0.870357         2.542329
 H        -2.464418         0.624729         1.588256
 H        -0.712156        -0.660343        -0.174516
 H        -0.584634         1.201578        -0.744422
 H         2.439966         0.186547         0.503084
 H        -0.833516         2.957174         0.686423
 H        -1.515358         2.781711         2.303645
