19
Iteration:  1572charge 0 multiplicity 1
 O         1.766948         2.619366         1.857220
 C         0.605352         1.803306         1.952412
 C         0.443045         1.045592         3.280107
 C        -0.391778         0.033456         2.345223
 C        -1.317243         0.932037         1.260949
 C        -0.546802         0.412837         0.123632
 C         0.641243         0.361102         1.076072
 O         1.891304         0.007742         0.573660
 C        -0.741952         2.337913         1.452476
 H         1.718969         3.157238         2.674698
 H         1.304137         0.445654         3.501242
 H        -0.017943         1.501917         4.184487
 H        -0.900293        -0.938732         2.475006
 H        -2.344509         0.707778         1.284748
 H        -0.902957        -0.511990        -0.320782
 H        -0.678419         1.061052        -0.804496
 H         1.622535        -0.905913         0.156474
 H        -0.662323         2.824722         0.490985
 H        -1.376934         2.906537         2.086609
