19
Iteration:  2260
 O         1.627547         2.896287         1.839856
 C         0.683829         1.884309         1.831866
 C         0.532072         0.979770         3.124695
 C        -0.281604         0.030790         2.168893
 C        -1.348813         0.835791         1.286314
 C        -0.532801         0.468356         0.045836
 C         0.662660         0.466435         1.060858
 O         1.764851        -0.394211         0.998474
 C        -0.754562         2.335580         1.558597
 H         1.383220         3.541635         1.146434
 H         1.478819         0.429527         3.419074
 H         0.000268         1.525734         3.956853
 H        -0.518398        -0.958689         2.323554
 H        -2.472178         0.652676         1.269231
 H        -0.877105        -0.516341        -0.338910
 H        -0.467890         1.157355        -0.803686
 H         2.303726        -0.218678         0.125884
 H        -0.766397         2.974621         0.648785
 H        -1.286236         2.753910         2.445177
