19
Iteration:    98
 O         1.607027         2.749510         1.844221
 C         0.605219         1.803720         1.907449
 C         0.564770         0.927991         3.082350
 C        -0.320206        -0.004294         2.263646
 C        -1.381416         0.857072         1.341733
 C        -0.505466         0.603671         0.010949
 C         0.640505         0.530060         1.014423
 O         1.857953        -0.306787         0.815776
 C        -0.816416         2.390197         1.612855
 H         1.995864         2.899294         2.697657
 H         1.470938         0.372470         3.169999
 H         0.260640         1.379666         4.003836
 H        -0.354220        -1.041117         2.325000
 H        -2.515487         0.551577         1.240929
 H        -0.715979        -0.270814        -0.601748
 H        -0.542452         1.414770        -0.712264
 H         2.147488        -0.111089        -0.047483
 H        -0.880279         2.805130         0.648406
 H        -1.169906         3.004392         2.435758
