19
Iteration:  3879charge 0 multiplicity 1
 O         1.605983         2.853078         1.739038
 C         0.632274         1.857772         1.834164
 C         0.497993         1.037189         3.139367
 C        -0.258106         0.025529         2.264097
 C        -1.353977         0.913090         1.283699
 C        -0.598396         0.415894         0.071084
 C         0.606366         0.302205         1.088214
 O         1.859601        -0.306823         0.967273
 C        -0.743876         2.378211         1.422677
 H         2.468020         2.551095         2.061248
 H         1.487497         0.644872         3.516871
 H         0.011432         1.527195         3.954695
 H        -0.640579        -0.862570         2.606541
 H        -2.415996         0.741804         1.510942
 H        -0.921115        -0.597776        -0.157792
 H        -0.624219         1.075108        -0.784580
 H         2.437605         0.338819         0.445763
 H        -0.810769         3.064515         0.559744
 H        -1.248708         3.005142         2.261827
