19
Iteration:  3693
 O         1.688245         2.793422         1.476568
 C         0.558755         1.840491         1.843176
 C         0.374570         1.035503         3.170009
 C        -0.336352         0.053326         2.202974
 C        -1.292639         0.951392         1.336271
 C        -0.434321         0.404513         0.072933
 C         0.674035         0.453404         1.036688
 O         1.874169        -0.388021         0.973446
 C        -0.841888         2.381078         1.712133
 H         1.887191         3.259441         2.299106
 H         1.254757         0.409168         3.451866
 H        -0.186527         1.295539         4.056400
 H        -0.633771        -0.972099         2.339464
 H        -2.383292         0.720569         1.444519
 H        -0.894142        -0.600646        -0.163986
 H        -0.196726         1.217018        -0.762087
 H         2.652808         0.170852         0.521455
 H        -1.035693         3.177431         0.975452
 H        -1.303719         2.784892         2.653514
