19
Iteration:  1788
 O         1.609068         2.794252         1.680353
 C         0.583090         1.796408         1.898043
 C         0.577120         0.931459         3.213888
 C        -0.264499         0.040441         2.197396
 C        -1.310693         0.885833         1.312202
 C        -0.541473         0.693273         0.004543
 C         0.648910         0.463883         1.094604
 O         1.862438        -0.256970         0.904139
 C        -0.871483         2.277925         1.636781
 H         2.158447         2.244866         1.086638
 H         1.465525         0.403974         3.470237
 H         0.058466         1.302825         4.083160
 H        -0.435362        -1.028270         1.992061
 H        -2.275784         0.587672         1.388534
 H        -0.805710        -0.094572        -0.567638
 H        -0.545485         1.600338        -0.482813
 H         1.593311        -1.201894         0.678497
 H        -0.798199         3.000869         0.803427
 H        -1.227082         2.916190         2.428313
