19
Iteration:  4397charge 0 multiplicity 1
 O         1.719755         2.643996         1.575336
 C         0.633397         1.830303         1.838707
 C         0.365606         1.186984         3.214318
 C        -0.406434         0.101615         2.403508
 C        -1.407259         0.876972         1.264809
 C        -0.520550         0.356892         0.149170
 C         0.663936         0.386790         1.123037
 O         1.935945        -0.169296         0.870692
 C        -0.755478         2.229705         1.424135
 H         1.665894         3.392474         2.178447
 H         1.152800         0.665034         3.700294
 H        -0.130362         1.804559         3.991863
 H        -0.697433        -0.872026         2.635024
 H        -2.476891         0.809886         1.398428
 H        -0.693893        -0.694279        -0.093637
 H        -0.337178         0.987154        -0.682981
 H         2.689191         0.369228         0.442838
 H        -0.951381         2.815501         0.542069
 H        -1.004155         2.877331         2.248270
