19
Iteration:   143charge 0 multiplicity 1
 O         1.582977         2.899627         1.762035
 C         0.724746         1.733338         1.827404
 C         0.385101         0.823543         3.196664
 C        -0.385055         0.012604         2.158904
 C        -1.363988         0.918981         1.303632
 C        -0.546137         0.577250        -0.012897
 C         0.686662         0.505523         1.044288
 O         1.877936        -0.283091         0.821546
 C        -0.736036         2.311373         1.749432
 H         2.463716         2.598378         1.513735
 H         1.210520         0.372872         3.631457
 H        -0.164308         1.323733         3.952744
 H        -0.705841        -0.926677         2.401305
 H        -2.401182         0.715319         1.443291
 H        -0.560463        -0.397382        -0.337426
 H        -0.642064         1.186032        -0.915306
 H         2.510203         0.342865         0.574112
 H        -0.635957         3.091348         1.022287
 H        -1.054903         2.629491         2.681462
