19
Iteration:  1431
 O         1.790297         2.654618         1.928436
 C         0.650796         1.824115         1.873280
 C         0.511138         0.995950         3.140963
 C        -0.396665         0.048382         2.283144
 C        -1.346618         0.878687         1.307075
 C        -0.575458         0.380440         0.041323
 C         0.566416         0.443852         1.060249
 O         1.875518        -0.071738         0.770423
 C        -0.751111         2.375597         1.480581
 H         1.345630         3.522741         1.932572
 H         1.482131         0.598863         3.299281
 H         0.122818         1.463530         4.078932
 H        -0.774398        -0.952852         2.560738
 H        -2.348423         0.638892         1.431608
 H        -0.988625        -0.529306        -0.245270
 H        -0.695963         0.947426        -0.777893
 H         1.722655        -0.850507         0.146974
 H        -0.598252         2.838936         0.463079
 H        -1.227757         3.024969         2.210770
