19
Iteration:  4663
 O         1.542478         2.975352         1.723451
 C         0.659151         1.902658         1.749583
 C         0.427232         1.109823         3.144780
 C        -0.293277         0.148413         2.311563
 C        -1.263150         0.930886         1.386304
 C        -0.528333         0.304930         0.118876
 C         0.666092         0.334022         1.087600
 O         1.921395        -0.474828         0.984947
 C        -0.807262         2.348784         1.350751
 H         2.299504         2.777743         2.325548
 H         1.387671         0.656962         3.511698
 H        -0.178805         1.669765         3.860428
 H        -0.849168        -0.783167         2.639452
 H        -2.279801         0.677925         1.369773
 H        -0.841756        -0.676473        -0.089040
 H        -0.574549         0.701271        -0.883243
 H         2.120482        -0.434559         0.069021
 H        -0.993226         2.899952         0.390289
 H        -1.251538         2.941742         2.198199
