19
Iteration:  3300
 O         1.745677         2.697551         1.862382
 C         0.652291         1.786745         1.873487
 C         0.357280         1.143072         3.226414
 C        -0.306619         0.107156         2.282525
 C        -1.339858         0.832976         1.339590
 C        -0.568141         0.384977         0.086139
 C         0.690723         0.445422         1.079554
 O         1.792424        -0.243552         0.764091
 C        -0.737028         2.328984         1.465679
 H         1.926162         3.062843         0.966227
 H         1.269882         0.776546         3.681564
 H        -0.158424         1.679709         3.943142
 H        -0.549393        -0.948075         2.485489
 H        -2.391603         0.701763         1.470084
 H        -0.792872        -0.615417        -0.245625
 H        -0.495740         0.987738        -0.841487
 H         2.267550         0.296775         0.179014
 H        -0.951400         2.734694         0.451738
 H        -1.131328         3.091078         2.172380
