19
Iteration:  1905
 O         1.719409         2.672075         1.789201
 C         0.685251         1.773066         1.917298
 C         0.363392         0.997507         3.153334
 C        -0.413708         0.117011         2.225314
 C        -1.341185         0.929598         1.331355
 C        -0.506163         0.391168         0.080039
 C         0.617388         0.406872         1.018988
 O         1.975420        -0.023351         0.749287
 C        -0.800284         2.305401         1.662550
 H         1.807431         2.868393         0.834216
 H         1.098307         0.341004         3.562695
 H        -0.169165         1.565500         3.997935
 H        -0.637379        -0.894046         2.456220
 H        -2.398426         0.804777         1.382937
 H        -0.797104        -0.732573         0.012206
 H        -0.588706         1.029722        -0.857959
 H         1.962143        -0.867613         0.337235
 H        -1.000674         3.113046         0.905575
 H        -1.055977         2.743889         2.605162
