19
Iteration:  3867
 O         1.608261         2.839348         1.660398
 C         0.627580         1.921139         1.954182
 C         0.519530         1.023073         3.177475
 C        -0.368651         0.161312         2.178863
 C        -1.314752         0.938267         1.320474
 C        -0.560968         0.354317         0.063019
 C         0.662782         0.438281         1.011819
 O         1.850072        -0.343781         1.008488
 C        -0.802663         2.288056         1.519979
 H         2.471808         2.431431         1.817063
 H         1.499473         0.454931         3.236907
 H         0.119396         1.210010         4.145877
 H        -0.588355        -0.846902         2.323626
 H        -2.416855         0.814939         1.350644
 H        -0.829289        -0.670121        -0.164694
 H        -0.587545         0.902247        -0.848913
 H         2.482789         0.044094         0.473414
 H        -0.680030         2.713468         0.496499
 H        -1.381676         2.920367         2.279069
