19
Iteration:  4076
 O         1.794175         2.760902         1.677670
 C         0.660870         1.913101         1.910150
 C         0.374441         1.059031         3.234300
 C        -0.384932         0.151554         2.301187
 C        -1.379332         0.836616         1.299029
 C        -0.561082         0.311259         0.093406
 C         0.635629         0.502201         1.058550
 O         1.845411        -0.239324         0.836800
 C        -0.750820         2.238392         1.381327
 H         2.044152         3.333523         2.447796
 H         1.352307         0.525420         3.437118
 H        -0.056826         1.491137         4.163030
 H        -0.540552        -0.894428         2.677398
 H        -2.493326         0.756991         1.539770
 H        -0.732675        -0.808523         0.292276
 H        -0.788173         0.757528        -0.897275
 H         2.628004         0.298563         0.774244
 H        -0.746310         2.706067         0.411304
 H        -1.451104         2.733355         2.093647
