19
Iteration:  3320
 O         1.812248         2.726562         1.811783
 C         0.605817         1.941542         1.901761
 C         0.313660         1.060323         3.118255
 C        -0.228632         0.036752         2.246032
 C        -1.353927         0.950284         1.420127
 C        -0.574652         0.393064         0.089192
 C         0.633914         0.386355         0.998425
 O         1.886194        -0.340027         0.831352
 C        -0.799290         2.369041         1.503966
 H         1.754382         3.278218         1.016150
 H         1.112044         0.784975         3.791113
 H        -0.523119         1.440230         3.772276
 H        -0.439372        -1.030371         2.489828
 H        -2.367607         0.895879         1.547667
 H        -0.757791        -0.640720         0.027185
 H        -0.671233         0.752699        -0.899076
 H         2.415924         0.105600         0.181929
 H        -0.839802         3.132543         0.702891
 H        -1.427387         2.832208         2.269279
