19
Iteration:  2684
 O         1.643714         2.695762         1.605006
 C         0.639749         1.791073         1.806111
 C         0.445955         1.041182         3.214941
 C        -0.400706         0.086204         2.310110
 C        -1.365248         0.811543         1.363243
 C        -0.448197         0.510571         0.065862
 C         0.614375         0.427722         1.121798
 O         1.931708        -0.085003         0.886225
 C        -0.818866         2.291271         1.510472
 H         2.376037         2.381180         2.152631
 H         1.404581         0.594871         3.494946
 H        -0.066704         1.517184         4.058212
 H        -0.815280        -0.823070         2.547139
 H        -2.495269         0.581488         1.335424
 H        -0.787700        -0.306713        -0.517618
 H        -0.296237         1.370768        -0.521722
 H         2.107641        -0.998765         0.459497
 H        -0.904004         2.899168         0.585746
 H        -1.150418         2.894559         2.348496
