19
Iteration:  3822
 O         1.603031         2.758709         1.598421
 C         0.616308         1.831088         1.852217
 C         0.360868         1.090160         3.201301
 C        -0.352748         0.079818         2.323243
 C        -1.330392         0.879403         1.330246
 C        -0.514035         0.504286         0.018632
 C         0.674573         0.352061         1.050568
 O         1.964069        -0.284046         0.956614
 C        -0.799076         2.329120         1.573845
 H         2.428078         2.274666         1.799299
 H         1.241394         0.542885         3.587971
 H         0.048892         1.913428         3.859292
 H        -0.656089        -0.920490         2.754215
 H        -2.415485         0.733032         1.527340
 H        -0.896122        -0.345892        -0.532730
 H        -0.384942         1.205899        -0.753681
 H         2.261447        -0.165150         0.094639
 H        -0.727970         2.952246         0.611836
 H        -1.256703         2.812881         2.488018
