19
Iteration:  1765
 O         1.685443         2.788377         1.606020
 C         0.678824         1.746110         1.885759
 C         0.411185         0.927951         3.129191
 C        -0.304578         0.006994         2.191045
 C        -1.367457         0.906084         1.341173
 C        -0.552191         0.571751         0.035206
 C         0.569001         0.457573         1.003983
 O         1.894555        -0.079345         0.882028
 C        -0.766454         2.256858         1.758470
 H         2.573500         2.498601         1.906024
 H         1.177747         0.290031         3.464354
 H        -0.157672         1.295183         3.987531
 H        -0.604675        -1.015273         2.402000
 H        -2.373140         0.753334         1.414877
 H        -0.853858        -0.358350        -0.298150
 H        -0.424883         1.294182        -0.686067
 H         1.823993        -1.000869         0.767761
 H        -0.791457         3.026377         0.965322
 H        -1.084684         2.795272         2.638142
