19
Iteration:  2027
 O         1.847450         2.610063         1.980721
 C         0.630577         1.858367         1.914875
 C         0.386860         1.048300         3.165034
 C        -0.352951         0.051016         2.276536
 C        -1.343768         0.905760         1.406648
 C        -0.601125         0.308402         0.071425
 C         0.573336         0.366155         0.998869
 O         1.866795        -0.037490         0.620930
 C        -0.770931         2.342179         1.468469
 H         1.853146         3.347502         1.341240
 H         1.400419         0.650592         3.473985
 H        -0.237800         1.501745         3.957714
 H        -0.772122        -0.968124         2.546691
 H        -2.350231         0.732244         1.320255
 H        -0.818073        -0.771227        -0.308846
 H        -0.625181         0.970696        -0.845989
 H         2.479647         0.594113         1.170510
 H        -0.766279         2.665251         0.415218
 H        -1.265904         2.940041         2.199794
