19
Iteration:  1960
 O         1.672038         2.851187         1.858544
 C         0.684183         1.862726         1.796079
 C         0.535409         0.990006         3.167348
 C        -0.340506         0.031916         2.155714
 C        -1.368377         0.898457         1.297837
 C        -0.497265         0.488261         0.036024
 C         0.639444         0.436274         0.978155
 O         1.880496        -0.277981         0.868774
 C        -0.885211         2.295784         1.698169
 H         2.018847         3.035959         0.961227
 H         1.455138         0.486208         3.433487
 H         0.111951         1.561498         4.057020
 H        -0.694514        -0.941301         2.448363
 H        -2.418849         0.826735         1.280460
 H        -0.799748        -0.487281        -0.461838
 H        -0.543150         1.256562        -0.779689
 H         1.596716        -1.156589         0.793785
 H        -1.159412         3.010594         0.912053
 H        -1.029996         2.591807         2.686834
