19
Iteration:  4540charge 0 multiplicity 1
 O         1.653409         2.720605         1.658043
 C         0.624955         1.838262         1.786423
 C         0.425154         1.157388         3.179393
 C        -0.338447         0.176810         2.306575
 C        -1.343958         0.910694         1.341921
 C        -0.581407         0.271576         0.129175
 C         0.651305         0.380997         1.072662
 O         1.947692        -0.302867         0.909119
 C        -0.815624         2.338289         1.363517
 H         2.008552         3.080765         2.496456
 H         1.413963         0.626713         3.383404
 H        -0.067628         1.692537         4.027592
 H        -0.559554        -0.833323         2.676742
 H        -2.495931         0.769612         1.548007
 H        -0.780717        -0.881027         0.082730
 H        -0.482842         1.039320        -0.651655
 H         2.583268         0.464039         1.166700
 H        -0.888788         2.892351         0.346205
 H        -1.228121         2.959799         2.197876
