19
Iteration:  2278charge 0 multiplicity 1
 O         1.673255         2.948438         1.876473
 C         0.674321         1.965765         1.952540
 C         0.442274         1.041558         3.171500
 C        -0.261153         0.152376         2.173314
 C        -1.280525         0.915697         1.255335
 C        -0.472726         0.298347        -0.030234
 C         0.667921         0.416300         0.970679
 O         1.747544        -0.490004         0.888134
 C        -0.831286         2.329416         1.653788
 H         1.336507         3.597499         1.226729
 H         1.490983         0.656626         3.265112
 H        -0.198733         1.439682         3.949895
 H        -0.384345        -0.979432         2.356143
 H        -2.328715         0.765988         1.381113
 H        -0.667155        -0.823292        -0.081557
 H        -0.587345         0.753503        -1.041390
 H         2.140763        -0.642980        -0.063290
 H        -1.007518         3.179405         0.913419
 H        -1.205790         2.676292         2.623961
