19
Iteration:  1306
 O         1.609618         2.795810         1.584937
 C         0.665865         1.788283         1.919843
 C         0.367331         0.870430         3.170636
 C        -0.371040         0.037155         2.169790
 C        -1.295768         0.983853         1.340496
 C        -0.598059         0.526233         0.030349
 C         0.656176         0.473804         1.059870
 O         1.945114        -0.165145         0.879194
 C        -0.703138         2.275530         1.724846
 H         2.387151         2.524723         2.127431
 H         1.295657         0.370012         3.649261
 H        -0.282786         1.237136         4.013353
 H        -0.633636        -1.046703         2.249986
 H        -2.461608         0.883792         1.235101
 H        -0.880355        -0.537693        -0.088229
 H        -0.400063         1.283076        -0.722380
 H         1.967965        -0.589872         0.017898
 H        -0.765610         3.042510         0.964535
 H        -1.172763         2.678693         2.648411
