19
Iteration:  4589
 O         1.695854         2.583537         1.463302
 C         0.586944         1.795917         1.800048
 C         0.351719         1.158483         3.231561
 C        -0.397255         0.084339         2.329999
 C        -1.328509         0.882584         1.308320
 C        -0.532823         0.389733         0.080247
 C         0.619397         0.356931         1.118425
 O         2.038834        -0.089839         1.030355
 C        -0.809262         2.338900         1.501787
 H         2.392360         2.416467         2.104868
 H         1.267582         0.800807         3.707363
 H        -0.435179         1.728542         3.762581
 H        -0.770871        -0.894264         2.774062
 H        -2.363975         0.765026         1.474247
 H        -0.865885        -0.632422        -0.085655
 H        -0.613638         0.880952        -0.917842
 H         2.419528         0.603229         0.489169
 H        -0.847313         2.799479         0.525120
 H        -1.230693         2.937142         2.334281
