19
Iteration:  4113charge 0 multiplicity 1
 O         1.673765         2.484615         1.548748
 C         0.535450         1.775857         1.841795
 C         0.332682         1.155683         3.166115
 C        -0.284362         0.085334         2.334057
 C        -1.288349         0.928886         1.351690
 C        -0.535022         0.421335         0.045397
 C         0.672753         0.362584         1.133645
 O         1.927178        -0.065703         0.896814
 C        -0.781031         2.296716         1.487755
 H         2.085831         2.716478         2.388923
 H         1.255276         0.895546         3.628358
 H        -0.318689         1.694494         3.898057
 H        -0.610900        -0.878053         2.832112
 H        -2.335067         0.856881         1.390073
 H        -0.871162        -0.605486        -0.254491
 H        -0.373379         0.969922        -0.926258
 H         2.387925         0.807150         1.044403
 H        -0.901093         3.014117         0.624673
 H        -1.173191         2.888551         2.424145
