19
Iteration:  1476
 O         1.659573         2.749907         1.581183
 C         0.691804         1.799624         1.946915
 C         0.418651         0.917572         3.254713
 C        -0.352732         0.048898         2.208399
 C        -1.335485         0.879185         1.255833
 C        -0.471149         0.621687        -0.006566
 C         0.615376         0.408438         1.054660
 O         1.862970        -0.223281         0.979548
 C        -0.802250         2.315282         1.747173
 H         1.576299         3.018342         0.655729
 H         1.230090         0.256448         3.563672
 H        -0.034174         1.436179         4.116937
 H        -0.565327        -0.966572         2.452031
 H        -2.439665         0.851361         1.061382
 H        -0.636818        -0.200687        -0.664115
 H        -0.305404         1.366938        -0.694470
 H         2.057551        -0.506996         0.000817
 H        -0.730278         3.013570         0.837834
 H        -1.097977         2.806739         2.692414
