19
Iteration:  3760
 O         1.717667         2.751015         1.803181
 C         0.652618         1.839589         1.770906
 C         0.376724         1.076566         3.192375
 C        -0.354060         0.124113         2.204276
 C        -1.403486         0.946358         1.323796
 C        -0.662378         0.251362         0.187214
 C         0.685629         0.428588         1.018782
 O         1.956392        -0.167672         0.871380
 C        -0.769769         2.301443         1.458000
 H         2.504079         2.187800         1.938368
 H         1.309597         0.564326         3.610488
 H        -0.121570         1.686039         3.931569
 H        -0.534732        -0.883860         2.377515
 H        -2.503115         0.855246         1.496456
 H        -0.949810        -0.853816         0.204830
 H        -0.736585         0.646180        -0.937505
 H         2.565963         0.326681         0.402786
 H        -0.814959         2.946100         0.602558
 H        -1.222450         2.970439         2.231972
