19
Iteration:  4607charge 0 multiplicity 1
 O         1.664512         2.676192         1.532699
 C         0.590753         1.839113         1.809285
 C         0.302583         1.165926         3.146246
 C        -0.318493         0.088114         2.298103
 C        -1.415874         0.912072         1.385732
 C        -0.547102         0.349988         0.144758
 C         0.673713         0.397015         1.146616
 O         2.041753        -0.228254         0.999037
 C        -0.825056         2.332921         1.429556
 H         2.471161         2.270992         1.872799
 H         1.241776         0.624050         3.533283
 H        -0.098923         1.761019         3.958632
 H        -0.578245        -0.927041         2.540825
 H        -2.419715         0.625516         1.211948
 H        -0.832559        -0.628769        -0.179366
 H        -0.405005         1.111760        -0.600218
 H         2.572735         0.487492         0.652962
 H        -0.908305         2.930876         0.473300
 H        -1.286104         2.942854         2.219846
