19
Iteration:   608
 O         1.645388         2.796450         1.897641
 C         0.608864         1.704356         1.906382
 C         0.557997         0.910725         3.119309
 C        -0.350295         0.028107         2.208323
 C        -1.336228         0.973742         1.334896
 C        -0.588897         0.533421         0.037559
 C         0.584996         0.377973         0.995782
 O         1.831584        -0.208582         0.791724
 C        -0.689135         2.322304         1.647374
 H         1.516278         3.139070         0.975766
 H         1.490975         0.383574         3.250524
 H         0.187263         1.462407         4.035787
 H        -0.693579        -1.093380         2.366446
 H        -2.311811         0.840496         1.287689
 H        -0.815590        -0.455846        -0.510891
 H        -0.603610         1.343514        -0.806096
 H         2.524838         0.367498         0.554742
 H        -0.715095         2.956524         0.799992
 H        -1.077088         2.828273         2.546706
