19
Iteration:  3901charge 0 multiplicity 1
 O         1.693858         2.782259         1.764804
 C         0.693188         1.829182         1.788827
 C         0.346300         1.187834         3.135996
 C        -0.383776         0.086101         2.328718
 C        -1.344344         0.863736         1.392097
 C        -0.518189         0.333107         0.091432
 C         0.640173         0.326330         1.053634
 O         1.835016        -0.216701         0.784839
 C        -0.695830         2.244047         1.494495
 H         2.200727         2.715323         2.606796
 H         1.247369         0.845397         3.735358
 H        -0.280053         1.699484         3.820834
 H        -0.543772        -0.874409         2.646157
 H        -2.443106         0.874563         1.483679
 H        -0.886655        -0.637919        -0.279066
 H        -0.471321         1.001912        -0.732422
 H         2.395213         0.401516         0.283156
 H        -0.871764         2.768937         0.536709
 H        -1.074735         3.096655         2.193402
