19
Iteration:  2374charge 0 multiplicity 1
 O         1.818620         2.471341         1.640370
 C         0.600044         1.714700         1.843619
 C         0.469741         1.070177         3.120052
 C        -0.455812         0.112349         2.284817
 C        -1.364863         0.941071         1.280469
 C        -0.493000         0.378463         0.097883
 C         0.623165         0.403569         1.092667
 O         1.930113         0.041716         0.919444
 C        -0.866692         2.315272         1.590513
 H         1.527099         3.156549         1.006859
 H         1.430062         0.609501         3.357150
 H        -0.135584         1.613275         3.834896
 H        -0.824989        -0.999595         2.615527
 H        -2.387078         0.673850         1.237161
 H        -0.944307        -0.532026        -0.269371
 H        -0.362169         1.201054        -0.722705
 H         2.542321         0.603708         1.373395
 H        -1.090366         3.035584         0.853018
 H        -1.292594         2.585217         2.551462
