19
Iteration:  4119
 O         1.679875         2.455361         1.526039
 C         0.527200         1.763321         1.873050
 C         0.350040         1.174679         3.181087
 C        -0.274440         0.091487         2.330423
 C        -1.300591         0.940174         1.322230
 C        -0.582114         0.397416         0.018458
 C         0.684177         0.390515         1.124080
 O         1.966477        -0.058620         0.930789
 C        -0.829696         2.314606         1.502946
 H         2.130039         2.688980         2.386324
 H         1.334291         0.719736         3.540888
 H        -0.273976         1.610040         3.981900
 H        -0.724844        -0.857052         2.704471
 H        -2.453109         0.856023         1.359608
 H        -0.723957        -0.685434        -0.177092
 H        -0.458415         1.236805        -0.671369
 H         2.423651         0.799887         0.946036
 H        -0.771739         2.863940         0.593398
 H        -1.133145         2.932825         2.304463
