19
Iteration:  4238
 O         1.689004         2.653451         1.686225
 C         0.651041         1.851724         1.835118
 C         0.353047         1.154860         3.175567
 C        -0.380640         0.116879         2.306408
 C        -1.369732         0.921842         1.329895
 C        -0.551940         0.253584         0.142360
 C         0.700417         0.436385         1.081337
 O         1.941047        -0.250170         0.813444
 C        -0.762195         2.385900         1.421988
 H         1.858584         3.376920         2.280007
 H         1.225728         0.572892         3.575022
 H        -0.116463         1.631727         3.996693
 H        -0.634856        -0.949564         2.496567
 H        -2.454658         0.572448         1.455319
 H        -0.864152        -0.787722         0.093736
 H        -0.708142         0.813524        -0.772996
 H         2.561698         0.352670         1.156251
 H        -0.833741         2.953816         0.501013
 H        -1.206026         2.941606         2.217158
