19
Iteration:  4311
 O         1.726044         2.743027         1.488535
 C         0.621818         1.797585         1.748826
 C         0.370432         1.079321         3.218412
 C        -0.323944         0.027004         2.316445
 C        -1.323052         0.882886         1.275580
 C        -0.532881         0.379656         0.083531
 C         0.636791         0.355148         1.176866
 O         1.877449        -0.226587         0.987903
 C        -0.787295         2.383805         1.531842
 H         1.972728         3.245560         2.301201
 H         1.237516         0.558325         3.739243
 H        -0.320985         1.703124         3.864967
 H        -0.543231        -0.921457         2.656042
 H        -2.414904         0.767364         1.329370
 H        -0.804657        -0.599066        -0.317018
 H        -0.238218         1.124143        -0.780963
 H         2.343086         0.538803         0.779021
 H        -1.004358         3.067175         0.604968
 H        -1.238055         2.769253         2.489723
