19
Iteration:  4497charge 0 multiplicity 1
 O         1.716784         2.801360         1.620332
 C         0.676384         1.951037         1.888767
 C         0.380358         1.147012         3.258323
 C        -0.346998         0.204961         2.295701
 C        -1.357456         0.785072         1.320518
 C        -0.485230         0.297294         0.128963
 C         0.684590         0.442116         1.149181
 O         1.800776        -0.355715         0.844825
 C        -0.793982         2.265537         1.372147
 H         1.611676         3.341951         2.439166
 H         1.314116         0.564181         3.586907
 H        -0.206669         1.777466         3.970562
 H        -0.431568        -0.862683         2.510818
 H        -2.535263         0.655014         1.340417
 H        -0.635414        -0.848121         0.072513
 H        -0.666239         0.885814        -0.837740
 H         2.666127        -0.030109         0.481983
 H        -0.630992         2.797840         0.347535
 H        -1.274345         2.859888         2.193493
