19
Iteration:  1101
 O         1.815786         2.672458         2.189466
 C         0.699290         1.856054         1.831446
 C         0.412346         1.062967         3.116325
 C        -0.240175         0.069072         2.190107
 C        -1.337760         0.867421         1.351118
 C        -0.678051         0.301370         0.095849
 C         0.626137         0.514729         0.960480
 O         1.755094        -0.204668         0.600235
 C        -0.739765         2.348256         1.494129
 H         1.767919         3.401722         1.539704
 H         1.407944         0.786395         3.553655
 H         0.012456         1.421054         3.992806
 H        -0.586796        -1.035011         2.618235
 H        -2.471240         1.023853         1.410891
 H        -0.783743        -0.808112        -0.019659
 H        -0.804407         0.834654        -0.820278
 H         2.394236         0.377069         0.229740
 H        -1.041293         2.838523         0.578879
 H        -1.343582         2.821381         2.328422
