19
Iteration:  1382charge 0 multiplicity 1
 O         1.787658         2.628675         1.880172
 C         0.648040         1.862441         1.904329
 C         0.242577         1.034269         3.213601
 C        -0.286141         0.024648         2.215214
 C        -1.270747         0.912610         1.374867
 C        -0.580895         0.399772         0.096243
 C         0.660048         0.434087         1.009370
 O         1.870049        -0.115762         0.582920
 C        -0.698948         2.346827         1.567641
 H         1.522383         3.531608         1.669718
 H         1.047895         0.723067         3.986868
 H        -0.444274         1.633506         3.861852
 H        -0.639257        -0.947915         2.625555
 H        -2.406319         0.960275         1.687915
 H        -0.843903        -0.701144        -0.219731
 H        -0.721074         1.044645        -0.933216
 H         2.131773        -1.017320         0.773735
 H        -0.904630         2.917082         0.669522
 H        -1.234649         2.863619         2.401517
