19
Iteration:  4010charge 0 multiplicity 1
 O         1.690820         2.681000         1.523965
 C         0.657242         1.883551         1.905699
 C         0.415518         1.064220         3.229819
 C        -0.265935         0.059950         2.265215
 C        -1.347926         0.886980         1.283962
 C        -0.445028         0.433321         0.063580
 C         0.625026         0.534880         1.111977
 O         1.756742        -0.290079         0.967154
 C        -0.822083         2.281975         1.542026
 H         1.649753         3.582495         1.848255
 H         1.380315         0.591268         3.642060
 H        -0.194575         1.411958         4.062107
 H        -0.422357        -0.963209         2.420492
 H        -2.475835         0.691110         1.368416
 H        -0.431969        -0.645771        -0.227322
 H        -0.329089         0.798510        -0.952648
 H         2.479343         0.191606         0.505325
 H        -0.818608         2.948593         0.665725
 H        -1.219245         2.785537         2.496027
