19
Iteration:  1211charge 0 multiplicity 1
 O         1.682804         2.692807         1.702726
 C         0.630856         1.793703         1.899619
 C         0.501750         0.864740         3.218988
 C        -0.360742         0.051235         2.257963
 C        -1.353496         0.896695         1.340588
 C        -0.558886         0.547957         0.005135
 C         0.605738         0.476331         1.040369
 O         1.840247        -0.194804         0.751163
 C        -0.719671         2.314334         1.636607
 H         1.427754         3.589867         1.978069
 H         1.516591         0.389610         3.505421
 H         0.011069         1.416674         4.016606
 H        -0.626630        -1.129328         2.341953
 H        -2.465875         0.741803         1.581641
 H        -0.802765        -0.461711        -0.414646
 H        -0.451058         1.337960        -0.736999
 H         2.625118         0.416537         1.044841
 H        -0.677983         2.887535         0.709252
 H        -1.287548         2.885177         2.429157
