19
Iteration:   510
 O         1.790529         2.706803         1.846351
 C         0.724903         1.768218         1.962921
 C         0.398131         0.933819         3.234528
 C        -0.388739         0.125767         2.232552
 C        -1.355274         0.911965         1.302487
 C        -0.595369         0.285029         0.117291
 C         0.587011         0.492460         0.967013
 O         1.793612         0.012900         0.571619
 C        -0.729572         2.274906         1.569179
 H         2.344508         2.562432         2.655433
 H         1.296252         0.383628         3.494862
 H        -0.195791         1.219622         4.152285
 H        -0.700198        -1.034132         2.365869
 H        -2.340490         0.923206         1.464176
 H        -0.821089        -0.794472         0.042932
 H        -0.669879         0.679402        -0.885608
 H         2.502480         0.654124         0.794116
 H        -0.700906         2.902815         0.730284
 H        -1.171187         2.879536         2.369528
