19
Iteration:   725charge 0 multiplicity 1
 O         1.792984         2.634116         1.754861
 C         0.633158         1.832274         1.901435
 C         0.509348         0.941808         3.095043
 C        -0.330198         0.055878         2.157914
 C        -1.330210         0.928423         1.320703
 C        -0.581880         0.545414         0.015995
 C         0.623935         0.456359         0.954512
 O         1.879209        -0.156227         0.930750
 C        -0.915734         2.321024         1.791218
 H         1.691479         2.787244         0.803756
 H         1.426136         0.484868         3.394019
 H        -0.168336         1.314716         3.896941
 H        -0.582702        -1.048777         2.378209
 H        -2.520447         0.727627         1.377944
 H        -0.792966        -0.509872        -0.204244
 H        -0.617458         1.094173        -0.890336
 H         2.321725         0.135876         0.160029
 H        -1.027114         3.090011         0.989569
 H        -1.194990         2.694753         2.806932
