19
Iteration:  4221charge 0 multiplicity 1
 O         1.760650         2.799411         1.677673
 C         0.663546         1.868362         1.902944
 C         0.376545         1.136180         3.303369
 C        -0.288240         0.152578         2.288894
 C        -1.329414         0.843565         1.269471
 C        -0.531850         0.319514         0.122862
 C         0.650169         0.473314         1.076856
 O         1.748494        -0.315976         0.779678
 C        -0.770761         2.224606         1.412223
 H         1.607616         3.300204         2.488043
 H         1.302556         0.845399         3.770119
 H        -0.353030         1.797175         3.934278
 H        -0.491031        -0.912530         2.633308
 H        -2.390146         0.845982         1.321622
 H        -0.572320        -0.816156        -0.077044
 H        -0.500093         0.690487        -0.930980
 H         2.559293         0.107710         1.001073
 H        -0.605154         2.675988         0.404302
 H        -1.359567         2.899751         2.125496
