19
Iteration:  1056
 O         1.656458         2.758103         1.765034
 C         0.649837         1.774777         1.920430
 C         0.463574         0.877627         3.233584
 C        -0.377638         0.016881         2.270220
 C        -1.336165         0.946233         1.317522
 C        -0.440295         0.620367         0.018190
 C         0.593885         0.395346         1.093864
 O         1.804961        -0.226609         0.659703
 C        -0.755155         2.292177         1.611574
 H         1.505510         3.307419         0.977050
 H         1.363471         0.379713         3.558008
 H         0.135184         1.295125         4.122076
 H        -0.564458        -1.059482         2.538414
 H        -2.378578         0.774103         1.357678
 H        -0.839251        -0.305920        -0.393449
 H        -0.347081         1.380153        -0.728398
 H         2.453899         0.173412         1.198167
 H        -0.635222         3.106399         0.939259
 H        -1.072033         2.748848         2.561397
