19
Iteration:  4361
 O         1.731424         2.831712         1.745360
 C         0.596029         1.972822         1.823543
 C         0.393509         1.073088         3.175905
 C        -0.172913         0.037516         2.241105
 C        -1.338412         0.905350         1.336254
 C        -0.554486         0.222589         0.161383
 C         0.641689         0.405934         1.087112
 O         1.754382        -0.351403         0.899252
 C        -0.770538         2.372289         1.362893
 H         1.864190         3.584469         2.317830
 H         1.422301         1.085741         3.351865
 H        -0.199065         1.504822         3.942130
 H        -0.516007        -0.985291         2.616567
 H        -2.383969         0.782802         1.343829
 H        -0.934151        -0.848543        -0.009107
 H        -0.303765         0.616232        -0.812944
 H         2.471819         0.385730         0.738322
 H        -0.853421         2.710133         0.394116
 H        -1.295848         2.987539         2.060436
