19
Iteration:  1282charge 0 multiplicity 1
 O         1.782218         2.646487         1.759754
 C         0.640678         1.826623         1.939537
 C         0.448294         1.047473         3.207096
 C        -0.335429         0.004360         2.273758
 C        -1.364228         0.852198         1.377355
 C        -0.492195         0.517040         0.002813
 C         0.620855         0.419006         1.113650
 O         1.840059        -0.110661         0.685289
 C        -0.842963         2.315004         1.555521
 H         2.074409         2.850829         2.665969
 H         1.298619         0.597315         3.719575
 H        -0.249053         1.449762         3.981729
 H        -0.561360        -0.968900         2.510251
 H        -2.447863         0.656540         1.258940
 H        -0.585430        -0.503677        -0.380390
 H        -0.435446         1.461837        -0.586399
 H         1.770015        -0.256922        -0.329721
 H        -0.989079         2.852595         0.595010
 H        -1.340688         2.896953         2.321098
