19
Iteration:  4347
 O         1.688961         2.816795         1.708246
 C         0.603576         1.894359         1.807327
 C         0.484257         1.091081         3.187371
 C        -0.283982         0.127133         2.322887
 C        -1.336281         0.901763         1.294926
 C        -0.508631         0.288909         0.154162
 C         0.644074         0.441970         1.096857
 O         1.801876        -0.372998         0.903924
 C        -0.814337         2.357382         1.335083
 H         1.412086         3.377399         2.479784
 H         1.458470         0.560610         3.460990
 H         0.052717         1.379529         4.151575
 H        -0.390184        -1.019706         2.447325
 H        -2.472467         0.725770         1.415416
 H        -0.626043        -0.835579         0.058257
 H        -0.737319         0.794501        -0.863155
 H         2.594121         0.070096         0.768220
 H        -0.720926         2.936167         0.358899
 H        -1.304345         3.067777         2.056576
