19
Iteration:   302charge 0 multiplicity 1
 O         1.772797         2.709809         1.933359
 C         0.627602         1.845387         1.904936
 C         0.421495         0.878687         3.171856
 C        -0.279265         0.019301         2.156602
 C        -1.349475         0.902183         1.325751
 C        -0.551305         0.504632        -0.000903
 C         0.598717         0.531847         1.015323
 O         1.848275        -0.132462         0.671745
 C        -0.856781         2.341973         1.667820
 H         2.217172         2.930558         1.111236
 H         1.389386         0.365689         3.387903
 H        -0.118039         1.280599         4.074359
 H        -0.296346        -1.178374         2.305649
 H        -2.459591         0.700816         1.373460
 H        -0.663393        -0.553340        -0.381498
 H        -0.635524         1.177587        -0.844907
 H         2.064840        -0.555948         1.522752
 H        -0.845718         2.981449         0.794328
 H        -1.336610         2.724092         2.593056
