19
Iteration:   604
 O         1.620270         2.780893         1.861736
 C         0.623179         1.736073         1.899468
 C         0.551399         0.871506         3.105920
 C        -0.374056         0.015186         2.196199
 C        -1.301298         0.977444         1.333633
 C        -0.579136         0.517325         0.019186
 C         0.569419         0.404940         1.018833
 O         1.843367        -0.214963         0.827948
 C        -0.669972         2.340816         1.689078
 H         1.499212         3.039795         0.939117
 H         1.572750         0.432511         3.160583
 H         0.257978         1.375664         4.043461
 H        -0.662157        -1.032695         2.379690
 H        -2.496517         0.881664         1.193705
 H        -0.819666        -0.422750        -0.521935
 H        -0.598981         1.262221        -0.787710
 H         2.459823         0.517724         0.481423
 H        -0.733286         3.112006         0.863609
 H        -1.149012         2.803365         2.592419
