19
Iteration:  3799charge 0 multiplicity 1
 O         1.701305         2.693883         1.655724
 C         0.611851         1.835119         1.865503
 C         0.366963         1.072360         3.226691
 C        -0.322925         0.082038         2.292047
 C        -1.353293         0.904614         1.342109
 C        -0.483903         0.417465         0.178139
 C         0.600105         0.425034         1.140147
 O         1.917989        -0.187127         0.846301
 C        -0.793685         2.310233         1.420527
 H         2.439313         2.196842         2.033406
 H         1.354522         0.733502         3.532802
 H        -0.218230         1.611184         4.046604
 H        -0.744196        -0.970677         2.516828
 H        -2.441904         0.768870         1.256329
 H        -0.788428        -0.508072        -0.261441
 H        -0.407631         1.034544        -0.668230
 H         2.066008         0.189085        -0.087859
 H        -0.867856         2.689858         0.347241
 H        -1.215514         2.976194         2.190321
