19
Iteration:  2519
 O         1.822474         2.643737         1.673790
 C         0.584278         1.884012         1.847343
 C         0.438476         1.076432         3.229468
 C        -0.361649         0.039339         2.254691
 C        -1.370765         0.867490         1.312529
 C        -0.481221         0.404751         0.061940
 C         0.628721         0.365462         1.079648
 O         1.885343        -0.163189         0.877260
 C        -0.896463         2.328923         1.615963
 H         1.740257         3.361408         1.030139
 H         1.406253         0.663159         3.587178
 H        -0.165886         1.418548         4.043938
 H        -0.714907        -0.906718         2.598146
 H        -2.481261         0.677438         1.425601
 H        -0.674434        -0.586513        -0.372629
 H        -0.451416         1.003832        -0.828191
 H         2.309525         0.545885         0.314507
 H        -0.911924         2.963594         0.725021
 H        -1.287471         2.955402         2.361732
