19
Iteration:   212
 O         1.849766         2.585567         1.913083
 C         0.615771         1.874136         1.949325
 C         0.312592         1.002328         3.142159
 C        -0.294559        -0.021556         2.126206
 C        -1.370800         0.887787         1.301466
 C        -0.595464         0.436455         0.045485
 C         0.608581         0.439942         0.976563
 O         1.953801        -0.077016         0.696476
 C        -0.811060         2.374645         1.676421
 H         1.760346         3.345437         2.504279
 H         1.272273         0.633452         3.589351
 H        -0.318196         1.418885         3.948806
 H        -0.688326        -1.116470         2.441119
 H        -2.453363         0.771396         1.439068
 H        -0.762720        -0.639807        -0.106655
 H        -0.780277         0.888485        -0.915029
 H         2.230279         0.199652        -0.219523
 H        -0.867044         3.114549         0.855940
 H        -1.234759         2.710310         2.611396
