19
Iteration:   399
 O         1.630348         2.735604         1.763228
 C         0.577221         1.797653         1.949086
 C         0.486430         0.862993         3.110519
 C        -0.268780        -0.024238         2.129917
 C        -1.307357         0.934149         1.348185
 C        -0.570676         0.683984         0.059109
 C         0.601110         0.389053         0.982289
 O         1.921554        -0.092781         0.852566
 C        -0.803088         2.320189         1.665670
 H         2.396918         2.338031         1.340429
 H         1.418655         0.334003         3.401393
 H         0.065803         1.219105         4.076404
 H        -0.649754        -1.192736         2.210173
 H        -2.413785         0.855859         1.539090
 H        -0.989588        -0.121677        -0.566128
 H        -0.391608         1.374980        -0.727589
 H         1.982666        -0.966010         1.283366
 H        -0.896160         2.859421         0.716540
 H        -1.346779         2.850515         2.452581
