19
Iteration:  1996charge 0 multiplicity 1
 O         1.711446         2.693639         1.899555
 C         0.651799         1.790135         1.936267
 C         0.384913         1.010741         3.285063
 C        -0.335342         0.055893         2.270609
 C        -1.316874         0.930154         1.387842
 C        -0.532264         0.377462         0.058474
 C         0.605728         0.451350         1.014828
 O         1.858647        -0.091644         0.600085
 C        -0.729483         2.334940         1.477350
 H         1.613649         3.244631         1.103546
 H         1.337065         0.590875         3.777034
 H        -0.222042         1.455171         4.054140
 H        -0.606752        -1.067017         2.286463
 H        -2.323431         0.663654         1.234932
 H        -0.650213        -0.782841        -0.116505
 H        -0.615047         1.077744        -0.820771
 H         2.153836        -0.811126         1.127769
 H        -0.834752         2.893459         0.547512
 H        -1.126931         3.091191         2.163571
