19
Iteration:  4392charge 0 multiplicity 1
 O         1.724065         2.686946         1.622267
 C         0.670302         1.768202         1.787224
 C         0.318837         1.180578         3.254761
 C        -0.391123         0.180628         2.351190
 C        -1.406723         0.845294         1.300599
 C        -0.567044         0.319955         0.156106
 C         0.702958         0.438220         1.102608
 O         1.942839        -0.218169         0.863502
 C        -0.737389         2.236261         1.425187
 H         1.606307         3.421323         2.275852
 H         1.337929         0.807939         3.653365
 H        -0.130612         1.848362         3.985408
 H        -0.723329        -0.883779         2.762869
 H        -2.519094         0.735893         1.305544
 H        -0.742809        -0.749013        -0.258559
 H        -0.505496         0.974201        -0.804901
 H         2.525951         0.382645         0.463049
 H        -0.909945         2.873932         0.514926
 H        -1.097973         2.838858         2.309004
