19
Iteration:  1447charge 0 multiplicity 1
 O         1.773251         2.662411         1.806116
 C         0.655758         1.837963         1.849745
 C         0.404441         0.977858         3.092473
 C        -0.282510         0.050674         2.173059
 C        -1.371037         0.932060         1.361515
 C        -0.577654         0.480525         0.094419
 C         0.621490         0.417979         1.004074
 O         1.875060        -0.158533         0.909921
 C        -0.815550         2.315205         1.581327
 H         1.721243         3.615563         1.581810
 H         1.333474         0.471674         3.511115
 H        -0.049191         1.405105         3.986653
 H        -0.447406        -1.019233         2.325521
 H        -2.550412         0.954967         1.342874
 H        -0.664517        -0.646450        -0.166713
 H        -0.380568         1.195954        -0.849114
 H         1.874067        -0.694596         0.135556
 H        -1.063817         3.066816         0.801764
 H        -1.174466         2.829507         2.516180
