19
Iteration:  3611charge 0 multiplicity 1
 O         1.800836         2.504321         1.727768
 C         0.632759         1.823084         1.889751
 C         0.298549         1.172544         3.271429
 C        -0.373672         0.103428         2.247281
 C        -1.361441         0.882065         1.361510
 C        -0.543115         0.270930         0.109820
 C         0.637789         0.432656         1.113237
 O         1.896586        -0.055108         0.607545
 C        -0.711471         2.340506         1.521100
 H         1.816225         3.465541         1.743221
 H         0.962813         0.664856         3.954522
 H        -0.545580         1.594732         3.810448
 H        -0.594362        -0.918274         2.631739
 H        -2.424714         0.826340         1.617457
 H        -0.813777        -0.775140         0.002491
 H        -0.536771         0.721117        -0.872128
 H         2.594783         0.579245         1.098305
 H        -0.906509         2.872363         0.544039
 H        -1.071426         2.861924         2.438737
