19
Iteration:  2398
 O         1.758744         2.622664         1.607536
 C         0.602762         1.805070         1.921951
 C         0.381052         1.006875         3.256494
 C        -0.330338         0.036605         2.309957
 C        -1.338197         0.879370         1.344322
 C        -0.468370         0.501538         0.003471
 C         0.588118         0.399506         1.173130
 O         1.860049        -0.121893         0.898417
 C        -0.788410         2.343683         1.524935
 H         1.669872         2.992237         0.699160
 H         1.285052         0.392201         3.527547
 H        -0.219903         1.457954         4.017943
 H        -0.497005        -1.086577         2.413686
 H        -2.392111         0.634479         1.440567
 H        -0.648269        -0.507405        -0.509605
 H        -0.603055         1.439406        -0.736109
 H         2.435646         0.680018         0.611560
 H        -0.703155         2.677543         0.491859
 H        -1.399281         3.020833         2.063681
