19
Iteration:  4563
 O         1.780532         2.688575         1.514439
 C         0.626700         1.865608         1.858114
 C         0.435051         1.097416         3.180303
 C        -0.423946         0.105150         2.337018
 C        -1.356270         0.817645         1.260029
 C        -0.504693         0.287999         0.113170
 C         0.601183         0.434611         1.165298
 O         1.815538        -0.110676         0.982778
 C        -0.771905         2.314133         1.435155
 H         2.454518         2.771995         2.197199
 H         1.358227         0.518099         3.516779
 H        -0.134395         1.591276         4.000838
 H        -0.452381        -0.947201         2.609648
 H        -2.474804         0.676953         1.312246
 H        -0.612867        -0.820241         0.143291
 H        -0.477686         0.863745        -0.816909
 H         2.294840         0.697169         0.882465
 H        -0.812170         2.779127         0.383661
 H        -1.372220         2.942320         2.136265
