19
Iteration:  1335charge 0 multiplicity 1
 O         1.661290         2.781265         1.732271
 C         0.606045         1.782367         1.875005
 C         0.568732         0.832115         3.096464
 C        -0.375194         0.077515         2.195052
 C        -1.341948         0.942597         1.311469
 C        -0.525248         0.544209         0.014536
 C         0.583242         0.470317         1.037128
 O         1.857836        -0.108371         0.992681
 C        -0.779893         2.295509         1.677492
 H         1.998421         2.665082         0.825409
 H         1.475007         0.297790         3.145328
 H         0.314313         1.086336         4.131387
 H        -0.631220        -0.919085         2.290915
 H        -2.370103         0.644478         1.212435
 H        -0.834103        -0.391821        -0.543958
 H        -0.233755         1.278699        -0.863772
 H         1.751225        -1.129061         0.783908
 H        -0.820934         3.082116         0.869991
 H        -1.200949         2.687862         2.590301
