19
Iteration:  4645
 O         1.589741         2.928938         1.668211
 C         0.660234         1.888651         1.862878
 C         0.454016         1.186640         3.172376
 C        -0.318268         0.124104         2.250651
 C        -1.382103         0.837169         1.222060
 C        -0.502025         0.234739         0.138158
 C         0.685202         0.428024         1.101896
 O         1.792464        -0.375078         0.985989
 C        -0.732445         2.285625         1.436285
 H         2.333760         2.797619         2.292684
 H         1.390344         0.660536         3.486364
 H         0.083575         1.752577         4.119769
 H        -0.316850        -0.930851         2.593454
 H        -2.494152         0.906028         1.463134
 H        -0.808574        -0.836581        -0.084532
 H        -0.499273         0.770901        -0.832248
 H         2.233164        -0.296322         0.167235
 H        -0.614009         2.858548         0.513924
 H        -1.222364         3.028903         2.117422
