19
Iteration:  2251
 O         1.637816         2.860847         1.823290
 C         0.672769         1.806895         1.855433
 C         0.521465         0.983864         3.124317
 C        -0.327221         0.059092         2.210050
 C        -1.331469         0.899696         1.336533
 C        -0.508111         0.541551         0.044355
 C         0.630019         0.403482         1.024765
 O         1.797041        -0.331521         0.995458
 C        -0.782417         2.224766         1.502413
 H         1.380687         3.472167         1.104212
 H         1.527210         0.646947         3.323102
 H         0.033749         1.425143         4.024325
 H        -0.574642        -0.979203         2.364331
 H        -2.438855         0.687893         1.378363
 H        -0.861309        -0.442635        -0.308387
 H        -0.489276         1.322881        -0.852418
 H         2.504475        -0.000457         0.308066
 H        -0.895412         2.804287         0.617991
 H        -1.060995         2.945567         2.295673
