19
Iteration:  1466charge 0 multiplicity 1
 O         1.760711         2.713890         1.628548
 C         0.628462         1.809007         1.914165
 C         0.389320         0.938846         3.218780
 C        -0.355350         0.057650         2.149597
 C        -1.309331         0.881517         1.267232
 C        -0.554396         0.569870        -0.045327
 C         0.698610         0.481547         1.037646
 O         1.889753        -0.242277         0.984490
 C        -0.787314         2.321008         1.789434
 H         1.427765         3.265696         0.887970
 H         1.285295         0.554443         3.723829
 H        -0.200678         1.487596         3.968960
 H        -0.627889        -0.945289         2.348028
 H        -2.429957         0.514915         1.254985
 H        -0.862475        -0.422003        -0.360816
 H        -0.533157         1.389666        -0.711883
 H         1.941284        -0.612612         0.056313
 H        -1.052550         3.052529         0.931001
 H        -1.277862         2.844279         2.637880
