19
Iteration:  2529charge 0 multiplicity 1
 O         1.792666         2.512487         1.637116
 C         0.570370         1.822715         1.874126
 C         0.449580         1.006348         3.169170
 C        -0.341829         0.138047         2.301566
 C        -1.337260         0.866632         1.334891
 C        -0.504202         0.467619         0.051015
 C         0.609695         0.452527         1.160355
 O         1.907910        -0.108593         0.913683
 C        -0.895501         2.319800         1.506442
 H         1.553761         3.341191         1.187499
 H         1.504367         0.646194         3.271590
 H         0.068872         1.362212         4.118299
 H        -0.601266        -0.916275         2.503465
 H        -2.441137         0.664699         1.397025
 H        -0.798361        -0.529650        -0.245994
 H        -0.409524         1.183449        -0.701035
 H         2.404355         0.698773         0.503395
 H        -1.103680         2.828282         0.558712
 H        -1.406625         2.755571         2.344350
