19
Iteration:  2674
 O         1.662568         2.815587         1.614122
 C         0.632817         1.852418         1.859505
 C         0.450318         1.031430         3.215788
 C        -0.407652         0.053486         2.282145
 C        -1.364072         0.923858         1.292345
 C        -0.465363         0.425452         0.071079
 C         0.605275         0.333175         1.098798
 O         1.898497        -0.127309         0.903004
 C        -0.789575         2.270378         1.574242
 H         2.483855         2.571745         2.087380
 H         1.354359         0.490940         3.460657
 H         0.058452         1.471506         4.155502
 H        -0.518497        -0.964481         2.537053
 H        -2.509627         0.725088         1.162396
 H        -0.490650        -0.561749        -0.383476
 H        -0.408266         1.145307        -0.745499
 H         1.857173        -0.902102         0.191239
 H        -0.942639         2.875810         0.673164
 H        -1.220319         2.854770         2.377042
