19
Iteration:  4016charge 0 multiplicity 1
 O         1.729146         2.736099         1.540289
 C         0.669553         1.854347         1.911175
 C         0.410527         1.084802         3.231713
 C        -0.289330         0.096025         2.256270
 C        -1.410972         0.889189         1.278064
 C        -0.451673         0.417432         0.051566
 C         0.678824         0.492740         1.096036
 O         1.786559        -0.332471         0.961140
 C        -0.834117         2.267115         1.547493
 H         1.530223         3.583739         1.978295
 H         1.306021         0.607850         3.588056
 H        -0.108208         1.512190         4.113380
 H        -0.479584        -0.995868         2.499099
 H        -2.390539         0.638004         1.615531
 H        -0.549172        -0.617610        -0.304245
 H        -0.507859         0.958134        -0.978972
 H         2.429500         0.307416         0.465967
 H        -0.766852         2.984092         0.713853
 H        -1.403121         2.727525         2.330855
