19
Iteration:  3495
 O         1.714452         2.718139         1.753700
 C         0.628698         1.838285         1.853252
 C         0.450769         1.087302         3.206816
 C        -0.287461         0.109365         2.248625
 C        -1.369208         0.894924         1.310260
 C        -0.491348         0.417745         0.076481
 C         0.662811         0.375215         1.146126
 O         1.789625        -0.311436         0.794413
 C        -0.866298         2.342942         1.542621
 H         1.570381         3.188887         0.897104
 H         1.485185         0.634078         3.407112
 H        -0.174492         1.574578         4.061973
 H        -0.477040        -0.907485         2.629769
 H        -2.410270         0.773214         1.491636
 H        -0.643666        -0.543306        -0.429440
 H        -0.344635         1.294955        -0.641198
 H         2.647770         0.230403         0.554557
 H        -0.732118         3.019350         0.711990
 H        -1.141702         2.819434         2.455917
