19
Iteration:  3935
 O         1.797748         2.582506         1.633264
 C         0.597960         1.944978         1.866893
 C         0.364700         1.040994         3.286835
 C        -0.314106         0.084940         2.301858
 C        -1.391713         0.904379         1.308189
 C        -0.452053         0.259229         0.131194
 C         0.626896         0.448405         1.076689
 O         1.810838        -0.128456         0.777137
 C        -0.808590         2.389426         1.449481
 H         2.095742         3.046774         2.467701
 H         1.390836         0.773619         3.634620
 H        -0.296748         1.398314         4.055733
 H        -0.452674        -0.965265         2.537745
 H        -2.482133         0.903120         1.374980
 H        -0.830263        -0.779486         0.143401
 H        -0.448997         0.665504        -0.880390
 H         2.646207         0.532273         0.885256
 H        -0.884240         2.640868         0.391804
 H        -1.367596         3.038521         2.274131
