19
Iteration:  2633
 O         1.599447         2.971761         1.881311
 C         0.677654         1.840245         1.856564
 C         0.415604         1.071797         3.107419
 C        -0.270202         0.068815         2.196027
 C        -1.370788         0.883789         1.367510
 C        -0.574967         0.350087         0.076285
 C         0.663154         0.417700         1.050507
 O         1.893213        -0.373944         0.885129
 C        -0.767531         2.329287         1.476093
 H         2.451266         2.661377         1.553120
 H         1.288069         0.516247         3.403442
 H         0.012492         1.664393         3.961007
 H        -0.355371        -1.019100         2.527779
 H        -2.433295         1.002473         1.595449
 H        -0.960633        -0.681614        -0.080085
 H        -0.582998         0.851748        -0.972937
 H         2.121831        -0.572853        -0.014662
 H        -0.848720         2.851721         0.534194
 H        -1.267773         3.016062         2.190532
