19
Iteration:  1372
 O         1.805569         2.606180         1.863455
 C         0.666006         1.850730         1.886959
 C         0.322703         1.073726         3.230879
 C        -0.266015         0.110846         2.239497
 C        -1.317344         0.877681         1.338817
 C        -0.563684         0.454353         0.041322
 C         0.618887         0.409525         1.008247
 O         1.892171        -0.119803         0.642451
 C        -0.805885         2.290919         1.601766
 H         1.668849         3.482135         1.495804
 H         1.279316         0.692205         3.766601
 H        -0.514984         1.393536         3.887149
 H        -0.504087        -0.991989         2.419003
 H        -2.467874         0.673229         1.392058
 H        -1.023051        -0.525023        -0.288110
 H        -0.550722         1.342561        -0.689498
 H         1.787675        -1.043586         1.045159
 H        -0.895803         2.920286         0.734925
 H        -1.200612         2.852214         2.483536
