19
Iteration:  1328
 O         1.613711         2.834511         1.690434
 C         0.664671         1.763750         1.891166
 C         0.525591         0.790950         3.177465
 C        -0.350216         0.028847         2.148195
 C        -1.357264         0.971975         1.261753
 C        -0.560805         0.542367        -0.020669
 C         0.594807         0.445707         0.998802
 O         1.878968        -0.132628         1.014864
 C        -0.766604         2.357867         1.705985
 H         2.078633         2.480763         0.922337
 H         1.537341         0.231532         3.272358
 H         0.302185         1.338160         4.127601
 H        -0.714256        -1.029777         2.325727
 H        -2.476987         0.611098         1.381829
 H        -0.885827        -0.509388        -0.171885
 H        -0.288659         1.280678        -0.798640
 H         1.989517        -1.007152         0.548417
 H        -0.690726         3.181617         1.012884
 H        -1.155630         2.779064         2.662957
