19
Iteration:  1106
 O         1.810484         2.657287         2.184215
 C         0.677755         1.874860         1.857237
 C         0.470935         1.044144         3.101943
 C        -0.269428         0.061038         2.187691
 C        -1.338520         0.860222         1.343217
 C        -0.669304         0.271767         0.092142
 C         0.611052         0.500173         0.992454
 O         1.761443        -0.174029         0.616984
 C        -0.760465         2.335698         1.492437
 H         1.880406         3.411430         1.569300
 H         1.481000         0.729816         3.405282
 H         0.026168         1.544567         4.095953
 H        -0.597859        -0.815641         2.565859
 H        -2.412853         0.974624         1.344993
 H        -0.966425        -0.763757        -0.106092
 H        -0.898989         0.881028        -0.848268
 H         2.385321         0.462037         0.149875
 H        -0.783066         2.952379         0.513460
 H        -1.340534         2.897055         2.209850
