19
Iteration:  3210charge 0 multiplicity 1
 O         1.749419         2.600503         1.695255
 C         0.621767         1.803619         1.856279
 C         0.450215         1.066114         3.221481
 C        -0.360743         0.105314         2.335869
 C        -1.359730         0.898302         1.280789
 C        -0.487693         0.473663         0.116227
 C         0.636979         0.415906         1.094446
 O         1.868337        -0.208060         0.801808
 C        -0.854177         2.274283         1.525811
 H         1.505643         3.352904         1.119416
 H         1.364175         0.796549         3.675255
 H        -0.048766         1.535679         4.078483
 H        -0.780917        -0.868839         2.695937
 H        -2.429184         0.924522         1.329128
 H        -0.640921        -0.498192        -0.288817
 H        -0.271523         1.255716        -0.642826
 H         2.532248         0.416943         0.615380
 H        -0.951283         2.811572         0.514185
 H        -1.335221         2.924151         2.296860
