19
Iteration:   783charge 0 multiplicity 1
 O         1.662183         2.828475         1.921706
 C         0.651113         1.789373         1.926501
 C         0.442720         0.896849         3.242784
 C        -0.327723         0.057735         2.200653
 C        -1.337289         0.939872         1.375625
 C        -0.599032         0.459916         0.097206
 C         0.647783         0.423197         1.024578
 O         1.838641        -0.216152         0.554845
 C        -0.674602         2.374800         1.536659
 H         1.417512         3.346773         1.122805
 H         1.376237         0.485325         3.653416
 H        -0.151837         1.196844         4.118964
 H        -0.631392        -1.001157         2.255240
 H        -2.321793         0.791569         1.570497
 H        -0.789326        -0.590597        -0.117619
 H        -0.540754         1.075035        -0.811059
 H         2.185018        -0.927838         1.245140
 H        -0.670133         2.911548         0.648562
 H        -0.936298         3.010752         2.353165
