19
Iteration:   134charge 0 multiplicity 1
 O         1.622108         2.936462         1.728061
 C         0.731590         1.831696         1.920952
 C         0.433899         0.871778         3.157983
 C        -0.398414         0.027863         2.141297
 C        -1.342936         0.906666         1.233656
 C        -0.532720         0.556099        -0.040592
 C         0.617291         0.456961         1.030713
 O         1.861059        -0.327661         0.856376
 C        -0.784213         2.248517         1.822739
 H         2.527009         2.603267         1.781490
 H         1.306512         0.320566         3.470965
 H        -0.077295         1.394680         3.959049
 H        -0.522556        -1.061743         2.325365
 H        -2.339027         0.753072         1.294223
 H        -0.741097        -0.404538        -0.413370
 H        -0.522219         1.347712        -0.807000
 H         2.518384         0.186403         0.446346
 H        -0.886102         3.153449         1.151125
 H        -1.110999         2.563691         2.753966
