19
Iteration:  2708charge 0 multiplicity 1
 O         1.709804         2.588480         1.607706
 C         0.611222         1.834197         1.845764
 C         0.336740         1.089916         3.224213
 C        -0.271367        -0.004374         2.250191
 C        -1.345434         0.900222         1.326654
 C        -0.560288         0.458876         0.039430
 C         0.571276         0.432228         1.070810
 O         1.971407         0.004182         0.910504
 C        -0.796112         2.325455         1.589496
 H         2.443779         1.912820         1.650059
 H         1.272490         0.840087         3.682877
 H        -0.406280         1.485882         3.953546
 H        -0.478251        -1.068474         2.474845
 H        -2.488717         0.773502         1.238239
 H        -0.797854        -0.551125        -0.296771
 H        -0.598911         1.243469        -0.736945
 H         2.335738        -0.891987         1.050921
 H        -0.875473         2.850444         0.637824
 H        -1.270966         2.886330         2.407807
