19
Iteration:  3144
 O         1.738993         2.709513         1.827588
 C         0.581924         1.834260         1.797364
 C         0.472899         1.081717         3.177739
 C        -0.280404         0.047398         2.324253
 C        -1.291677         0.888693         1.335557
 C        -0.588210         0.394657         0.062637
 C         0.629422         0.476500         0.997832
 O         1.815367        -0.298464         0.850162
 C        -0.771138         2.338736         1.492169
 H         1.592604         3.421823         1.185216
 H         1.478712         0.838824         3.495592
 H        -0.121625         1.493055         3.997326
 H        -0.692943        -0.944045         2.641083
 H        -2.414270         0.764520         1.417324
 H        -0.754978        -0.623890        -0.324834
 H        -0.519333         1.189595        -0.791526
 H         2.591599         0.374877         1.042167
 H        -1.062904         2.749301         0.487365
 H        -1.411769         2.796558         2.274980
