19
Iteration:  4995
 O         1.608114         2.940106         1.627458
 C         0.652511         1.846338         1.877524
 C         0.415990         1.116046         3.280506
 C        -0.319661         0.117754         2.295849
 C        -1.341943         0.861863         1.241629
 C        -0.521090         0.281601         0.073526
 C         0.576032         0.377665         1.112613
 O         1.870702        -0.314253         0.959067
 C        -0.707104         2.291310         1.421677
 H         2.475443         2.544222         1.860696
 H         1.269514         0.694882         3.732729
 H        -0.087205         1.714656         4.001825
 H        -0.544173        -0.815017         2.675247
 H        -2.427919         0.764149         1.255530
 H        -0.695664        -0.810575         0.040561
 H        -0.626811         0.735352        -0.988061
 H         2.414019         0.113588         0.293140
 H        -0.588385         2.827769         0.504780
 H        -1.327440         2.900302         2.116740
