19
Iteration:  2270charge 0 multiplicity 1
 O         1.651558         2.939260         1.852757
 C         0.649485         1.922635         1.899861
 C         0.476594         1.013438         3.115226
 C        -0.250333         0.072468         2.156133
 C        -1.294846         0.879032         1.225407
 C        -0.535505         0.326040        -0.000098
 C         0.671198         0.460406         1.007137
 O         1.753349        -0.473007         0.959522
 C        -0.782648         2.395067         1.648115
 H         1.409562         3.623770         1.204045
 H         1.316551         0.377639         3.576516
 H         0.076987         1.457286         4.068924
 H        -0.220738        -0.920358         2.395247
 H        -2.403700         0.767868         1.401180
 H        -0.438423        -0.729507        -0.299491
 H        -0.609575         0.971078        -0.783852
 H         2.044740        -0.410263        -0.044164
 H        -0.911278         3.209473         0.852087
 H        -1.365064         2.752463         2.536621
