19
Iteration:  2051charge 0 multiplicity 1
 O         1.764330         2.573209         1.854673
 C         0.636453         1.821142         1.904548
 C         0.375300         1.026880         3.174017
 C        -0.286871         0.053569         2.175794
 C        -1.388555         0.991463         1.238785
 C        -0.585949         0.315356         0.124394
 C         0.642039         0.506833         1.039465
 O         1.897911        -0.091699         0.788592
 C        -0.788801         2.344387         1.622551
 H         1.838593         3.140348         1.078203
 H         1.283982         0.436420         3.506193
 H        -0.218223         1.500757         3.939070
 H        -0.715395        -0.952743         2.436796
 H        -2.446852         0.766688         1.251388
 H        -0.685575        -0.843265        -0.041624
 H        -0.667727         0.773298        -0.924135
 H         2.390936         0.452516         0.162081
 H        -0.860344         3.118388         0.872776
 H        -1.168854         2.577553         2.595025
