19
Iteration:  3184
 O         1.753874         2.739262         1.822855
 C         0.640779         1.856550         1.865978
 C         0.418764         0.991877         3.163537
 C        -0.358557         0.031985         2.281337
 C        -1.327680         0.951891         1.346051
 C        -0.559952         0.286384         0.083312
 C         0.615314         0.359888         1.020993
 O         1.843739        -0.140906         0.849069
 C        -0.745086         2.346364         1.455783
 H         1.692597         3.241717         0.981291
 H         1.407641         0.692841         3.620716
 H         0.010675         1.510984         4.130332
 H        -0.766472        -0.922260         2.563397
 H        -2.506485         0.910499         1.322639
 H        -0.972898        -0.751824        -0.000269
 H        -0.589059         0.830919        -0.826985
 H         2.407128         0.427086         0.400838
 H        -0.774756         3.065716         0.621823
 H        -1.084865         2.906104         2.352578
