19
Iteration:   832
 O         1.801935         2.535938         1.955333
 C         0.622836         1.848489         1.892746
 C         0.434547         1.013269         3.134256
 C        -0.253794         0.013847         2.268246
 C        -1.341581         0.891543         1.326428
 C        -0.631152         0.466606         0.061160
 C         0.618862         0.496844         1.048697
 O         1.856852        -0.114516         0.728357
 C        -0.836004         2.333555         1.531932
 H         1.865118         3.187231         1.244562
 H         1.417866         0.529173         3.396213
 H         0.056294         1.592541         4.034923
 H        -0.638007        -1.005427         2.522199
 H        -2.509392         0.709888         1.461423
 H        -0.701759        -0.602280        -0.290232
 H        -0.777448         1.266968        -0.816402
 H         2.133686         0.384050        -0.000516
 H        -0.829028         2.882760         0.518314
 H        -1.332284         2.924929         2.355347
