19
Iteration:   437charge 0 multiplicity 1
 O         1.583927         2.877758         1.632563
 C         0.765580         1.796677         1.999470
 C         0.488615         0.853996         3.221121
 C        -0.372433         0.037745         2.119804
 C        -1.328142         0.941577         1.257484
 C        -0.450488         0.563411        -0.000755
 C         0.616627         0.491167         1.067423
 O         1.781380        -0.181349         0.841226
 C        -0.769921         2.183714         1.761322
 H         2.452493         2.672692         2.027119
 H         1.295059         0.151751         3.426620
 H         0.118525         1.413789         4.070340
 H        -0.517892        -0.931544         2.388138
 H        -2.424275         0.810588         1.129952
 H        -0.862886        -0.394811        -0.340952
 H        -0.296278         1.290065        -0.863833
 H         1.741460        -0.618451         0.033573
 H        -0.937088         3.128208         1.194622
 H        -1.230839         2.316542         2.756820
