19
Iteration:  1646
 O         1.678554         2.744273         1.767639
 C         0.689712         1.767170         1.875133
 C         0.583270         0.906858         3.091433
 C        -0.452651         0.027986         2.170399
 C        -1.367143         0.905098         1.338846
 C        -0.521997         0.615310         0.046974
 C         0.598864         0.452980         1.034693
 O         1.835376        -0.120353         0.947503
 C        -0.774926         2.264631         1.662861
 H         1.621988         3.055186         0.847603
 H         1.403104         0.239817         3.168477
 H         0.364485         1.427279         4.046371
 H        -0.588002        -1.066085         2.236882
 H        -2.358493         0.672317         1.193236
 H        -0.684100        -0.330385        -0.483485
 H        -0.294815         1.478717        -0.654984
 H         1.845573        -1.101156         0.677042
 H        -0.829426         3.016814         0.851963
 H        -1.181018         2.742042         2.557352
