19
Iteration:  4448charge 0 multiplicity 1
 O         1.802672         2.616258         1.435961
 C         0.646178         1.786738         1.850719
 C         0.394208         1.103098         3.121990
 C        -0.396112         0.107974         2.262944
 C        -1.400875         0.848365         1.286393
 C        -0.596201         0.397256         0.112468
 C         0.635040         0.379933         1.070353
 O         1.953638        -0.083967         1.124817
 C        -0.825929         2.268097         1.555582
 H         1.714418         3.341614         2.062078
 H         1.275799         0.685684         3.536212
 H        -0.035651         1.791875         3.823570
 H        -0.639075        -0.952552         2.511761
 H        -2.407147         0.689322         1.290144
 H        -0.771281        -0.720471        -0.134549
 H        -0.621173         1.048093        -0.755620
 H         2.631630         0.608328         1.074920
 H        -0.921521         2.780262         0.642838
 H        -1.213328         2.895615         2.361429
