19
Iteration:  4403charge 0 multiplicity 1
 O         1.724535         2.618688         1.536921
 C         0.613701         1.842247         1.862691
 C         0.383851         1.173480         3.190475
 C        -0.404717         0.068631         2.392529
 C        -1.368620         0.893685         1.286456
 C        -0.466438         0.366427         0.139908
 C         0.631827         0.366670         1.159343
 O         1.918046        -0.152571         0.884515
 C        -0.789685         2.271773         1.436507
 H         1.749954         3.411205         2.095765
 H         1.209868         0.594317         3.689683
 H        -0.178612         1.741850         3.936531
 H        -0.693095        -1.017910         2.699033
 H        -2.458644         0.806560         1.362341
 H        -0.719536        -0.725212        -0.076319
 H        -0.313737         1.018346        -0.781876
 H         2.564875         0.542492         0.512196
 H        -0.822489         2.832487         0.467194
 H        -1.231941         2.924326         2.247951
