19
Iteration:  3975
 O         1.755231         2.598394         1.522019
 C         0.632064         1.801639         1.849047
 C         0.433192         1.049065         3.193352
 C        -0.404106         0.100236         2.302145
 C        -1.435624         0.894704         1.356683
 C        -0.630808         0.473836         0.001542
 C         0.601647         0.373504         1.107180
 O         2.047583        -0.128317         0.995189
 C        -0.807392         2.247862         1.513568
 H         1.776162         3.495265         1.842098
 H         1.341935         0.466704         3.608764
 H        -0.109647         1.529655         4.010161
 H        -0.763622        -0.803987         2.690551
 H        -2.547897         0.796685         1.340452
 H        -0.772789        -0.572264        -0.224640
 H        -0.313139         1.199024        -0.825705
 H         2.534764         0.670024         0.872866
 H        -1.044230         2.936117         0.671965
 H        -1.024671         2.849619         2.366350
