19
Iteration:   695
 O         1.768262         2.654460         1.780441
 C         0.656541         1.739193         1.924546
 C         0.475176         0.875618         3.177229
 C        -0.389240         0.043173         2.268753
 C        -1.363748         0.925559         1.397989
 C        -0.572045         0.508549         0.102588
 C         0.561428         0.413958         1.036731
 O         1.863984        -0.023063         0.686863
 C        -0.739560         2.298951         1.550148
 H         1.396871         3.281027         1.115251
 H         1.335781         0.332983         3.544740
 H        -0.128484         1.329533         4.023278
 H        -0.657398        -1.066883         2.478206
 H        -2.386203         0.860050         1.406216
 H        -0.753521        -0.506965        -0.341511
 H        -0.526312         1.217362        -0.774741
 H         2.526014         0.314982         1.301249
 H        -0.763762         2.759638         0.587672
 H        -1.113461         3.103186         2.202309
