19
Iteration:   853
 O         1.782812         2.636529         1.760017
 C         0.678598         1.821280         1.894811
 C         0.384799         0.848553         3.179336
 C        -0.328196         0.008091         2.138159
 C        -1.408811         0.941706         1.436419
 C        -0.542116         0.490045         0.024329
 C         0.621386         0.445823         1.041725
 O         1.896700        -0.017797         0.891687
 C        -0.787081         2.338753         1.625717
 H         1.814355         2.849610         0.805719
 H         1.389410         0.505606         3.563888
 H        -0.171837         1.250002         4.085518
 H        -0.676396        -1.063236         2.182846
 H        -2.508201         0.673642         1.441252
 H        -0.970177        -0.496974        -0.307302
 H        -0.667034         1.321216        -0.789149
 H         2.062125        -0.168811        -0.104588
 H        -0.844964         2.921321         0.656861
 H        -1.129194         2.970050         2.480576
