19
Iteration:  2895
 O         1.820163         2.523135         1.685478
 C         0.613845         1.779632         1.905164
 C         0.349929         1.092066         3.267021
 C        -0.413827         0.117231         2.261944
 C        -1.290103         0.948334         1.322984
 C        -0.475014         0.322176         0.096148
 C         0.606718         0.412746         1.153112
 O         1.889414        -0.072153         0.693575
 C        -0.819682         2.327150         1.494166
 H         1.623546         3.475877         1.801666
 H         1.313927         0.586915         3.347264
 H        -0.097231         1.582888         4.145889
 H        -0.767625        -0.895998         2.652495
 H        -2.404139         0.809291         1.513784
 H        -0.723664        -0.677026        -0.011533
 H        -0.617325         0.921005        -0.758801
 H         2.466056         0.658848         0.661847
 H        -1.095734         2.986312         0.694315
 H        -1.320317         2.724872         2.389500
