19
Iteration:   828charge 0 multiplicity 1
 O         1.794565         2.543421         1.986601
 C         0.655394         1.849643         1.879353
 C         0.438377         1.030666         3.155906
 C        -0.249300         0.031286         2.267283
 C        -1.378821         0.890802         1.336220
 C        -0.618013         0.431107         0.005902
 C         0.632884         0.478062         1.066894
 O         1.828133        -0.131684         0.701290
 C        -0.833851         2.339293         1.530423
 H         1.835985         3.259755         1.312872
 H         1.445933         0.647682         3.456779
 H         0.109292         1.578888         4.010418
 H        -0.664065        -0.911419         2.524275
 H        -2.330975         0.685881         1.411460
 H        -0.739190        -0.586919        -0.325636
 H        -0.849053         1.154270        -0.731849
 H         2.181499         0.540840        -0.009198
 H        -0.850439         2.913528         0.654426
 H        -1.273783         2.899481         2.311593
