19
Iteration:  1393charge 0 multiplicity 1
 O         1.795590         2.704115         1.906033
 C         0.680548         1.766151         1.949396
 C         0.244823         1.018786         3.204388
 C        -0.346464        -0.024568         2.252035
 C        -1.300260         0.940518         1.399595
 C        -0.626496         0.362307         0.149981
 C         0.669253         0.405278         1.062301
 O         1.875478        -0.058203         0.507702
 C        -0.657654         2.413038         1.476604
 H         1.428311         3.614959         1.830628
 H         1.175610         0.602207         3.745381
 H        -0.504286         1.600757         3.783353
 H        -0.742704        -1.067361         2.338592
 H        -2.454203         0.717179         1.507684
 H        -0.674792        -0.814188         0.166632
 H        -0.593439         0.782222        -0.993789
 H         1.900424        -0.936644         0.781754
 H        -0.534789         2.914978         0.523831
 H        -1.106276         3.068712         2.276193
