19
Iteration:  2236charge 0 multiplicity 1
 O         1.661687         2.699747         1.767884
 C         0.615543         1.798948         1.838066
 C         0.454560         1.001843         3.163985
 C        -0.341022         0.044524         2.266222
 C        -1.358155         0.870461         1.365204
 C        -0.539010         0.501517         0.003536
 C         0.614507         0.366590         1.065506
 O         1.914569        -0.220766         0.910692
 C        -0.751348         2.364405         1.519179
 H         1.460986         3.288768         1.021472
 H         1.380713         0.344583         3.338952
 H         0.032759         1.540580         4.057719
 H        -0.651482        -0.915889         2.649322
 H        -2.442082         0.821930         1.488942
 H        -0.729521        -0.399468        -0.619633
 H        -0.443677         1.293467        -0.658309
 H         2.467605         0.583180         0.929349
 H        -0.755168         2.867177         0.495031
 H        -1.294570         2.912507         2.301855
