19
Iteration:  3971charge 0 multiplicity 1
 O         1.771762         2.588735         1.546808
 C         0.619421         1.788491         1.809077
 C         0.454344         1.044257         3.206845
 C        -0.443924         0.128203         2.318003
 C        -1.459598         0.874546         1.343496
 C        -0.651675         0.465826         0.024694
 C         0.640120         0.391495         1.073246
 O         2.056884        -0.119022         0.986374
 C        -0.748367         2.227305         1.515138
 H         1.702287         3.475737         1.981425
 H         1.276176         0.571401         3.646694
 H        -0.070478         1.662798         4.013437
 H        -0.752680        -0.923979         2.843925
 H        -2.540467         0.856825         1.241278
 H        -0.971735        -0.609091        -0.349575
 H        -0.467158         1.209476        -0.913951
 H         2.474747         0.867488         1.021707
 H        -1.123829         2.832824         0.681808
 H        -1.114398         2.876088         2.325995
