19
Iteration:  3744charge 0 multiplicity 1
 O         1.668802         2.752630         1.742429
 C         0.616607         1.866790         1.863900
 C         0.419946         1.050797         3.078868
 C        -0.292859         0.055639         2.303979
 C        -1.299647         0.876592         1.387915
 C        -0.585335         0.375841         0.076402
 C         0.594482         0.386424         1.077764
 O         1.903165        -0.237385         0.901228
 C        -0.779938         2.390108         1.409656
 H         2.434557         2.483163         2.252083
 H         1.394302         0.686291         3.390277
 H        -0.073710         1.522955         3.975587
 H        -0.730800        -0.935205         2.705546
 H        -2.365313         0.704060         1.480062
 H        -0.823166        -0.663478        -0.094237
 H        -0.648805         1.013915        -0.778448
 H         2.284394         0.498703         0.389599
 H        -0.852248         2.780980         0.330148
 H        -1.265548         3.027522         2.184982
