19
Iteration:  4484
 O         1.670337         2.710776         1.598579
 C         0.582192         1.847242         1.867523
 C         0.441917         1.174669         3.201545
 C        -0.298749         0.076063         2.286077
 C        -1.340661         0.893003         1.261115
 C        -0.482137         0.339177         0.178137
 C         0.678287         0.476249         1.129466
 O         1.837068        -0.329142         0.922638
 C        -0.824289         2.322184         1.439733
 H         1.856706         3.447057         2.180124
 H         1.390900         0.754141         3.580565
 H        -0.008902         1.616341         4.102634
 H        -0.646584        -0.875440         2.635613
 H        -2.425580         0.539642         1.260286
 H        -0.753393        -0.799802        -0.019324
 H        -0.387356         0.833118        -0.817410
 H         2.435648         0.314309         0.519090
 H        -0.673583         2.794900         0.420918
 H        -1.402033         3.109330         1.949146
