19
Iteration:    95charge 0 multiplicity 1
 O         1.621742         2.756467         1.851254
 C         0.626804         1.806083         1.906647
 C         0.539139         0.941897         3.099576
 C        -0.341640         0.003157         2.237529
 C        -1.396781         0.840658         1.363986
 C        -0.524053         0.602064         0.036423
 C         0.653662         0.515927         1.001964
 O         1.862721        -0.286081         0.808553
 C        -0.787311         2.361549         1.587433
 H         1.962537         2.930799         2.753979
 H         1.491327         0.304940         3.181712
 H         0.242923         1.448398         4.060376
 H        -0.346425        -1.147304         2.382658
 H        -2.585411         0.622401         1.231420
 H        -0.750049        -0.323816        -0.645124
 H        -0.554488         1.401194        -0.729006
 H         2.140563        -0.036811        -0.144450
 H        -0.819209         2.805647         0.592457
 H        -1.189774         3.001584         2.477274
