19
Iteration:  4230
 O         1.729448         2.728281         1.681968
 C         0.595177         1.810910         1.888663
 C         0.403274         1.141919         3.264094
 C        -0.344726         0.182402         2.282246
 C        -1.351982         0.865785         1.302448
 C        -0.545033         0.287819         0.153882
 C         0.691582         0.479575         1.039154
 O         1.861625        -0.291577         0.793810
 C        -0.768586         2.296527         1.387725
 H         1.786320         3.383555         2.396856
 H         1.274094         0.793055         3.832867
 H        -0.299058         1.707661         4.014310
 H        -0.568827        -0.955932         2.502935
 H        -2.469473         0.782836         1.243593
 H        -0.754021        -0.886790         0.122626
 H        -0.740312         0.829281        -0.813989
 H         2.671612         0.133014         1.068298
 H        -0.670304         2.924920         0.541561
 H        -1.256511         2.906308         2.164670
