19
Iteration:  4298charge 0 multiplicity 1
 O         1.723097         2.569563         1.415651
 C         0.605953         1.894217         1.884894
 C         0.334548         1.036356         3.201682
 C        -0.307532         0.053417         2.254262
 C        -1.327843         0.924364         1.351374
 C        -0.446934         0.417454         0.142120
 C         0.636302         0.423605         1.106958
 O         1.907229        -0.176726         1.011170
 C        -0.899100         2.363736         1.504638
 H         2.196340         2.934169         2.170926
 H         1.280976         0.737250         3.666202
 H        -0.333093         1.539761         4.004571
 H        -0.654444        -0.939054         2.427939
 H        -2.315540         0.625839         1.389944
 H        -0.759173        -0.611820        -0.171979
 H        -0.432167         1.014779        -0.829087
 H         2.674251         0.483851         0.782556
 H        -0.997386         2.962106         0.570524
 H        -1.304648         2.992857         2.317351
