19
Iteration:  2727charge 0 multiplicity 1
 O         1.814614         2.665895         1.662986
 C         0.648110         1.844564         1.875268
 C         0.321017         0.949150         3.213514
 C        -0.397647         0.067615         2.204085
 C        -1.339502         0.920351         1.308255
 C        -0.539473         0.282590         0.102355
 C         0.599894         0.501988         1.075647
 O         1.924720         0.065869         0.867135
 C        -0.803638         2.342493         1.544606
 H         2.417049         2.258796         0.989077
 H         1.161074         0.354623         3.635063
 H        -0.200727         1.524511         3.982875
 H        -0.634000        -0.891736         2.487362
 H        -2.407456         0.568574         1.511934
 H        -0.667764        -0.781552         0.007018
 H        -0.532555         0.694809        -0.857443
 H         1.981004        -0.901395         1.266947
 H        -0.894979         3.134304         0.765648
 H        -1.326211         2.834491         2.356858
