19
Iteration:  1414
 O         1.757101         2.692591         1.964040
 C         0.661582         1.820691         1.944086
 C         0.434140         0.951147         3.279250
 C        -0.389255         0.118773         2.301230
 C        -1.343574         0.957707         1.320265
 C        -0.649216         0.325185         0.110167
 C         0.638555         0.399364         1.040212
 O         1.833669        -0.010497         0.586779
 C        -0.636229         2.275068         1.372517
 H         1.495589         3.620442         2.063127
 H         1.341614         0.288486         3.450764
 H         0.002885         1.532737         4.094834
 H        -0.696689        -0.859267         2.667639
 H        -2.521514         1.046328         1.383949
 H        -0.740748        -0.822482        -0.174505
 H        -0.520740         0.947124        -0.926879
 H         2.001391        -1.001508         0.376375
 H        -0.583347         2.614980         0.323888
 H        -1.232645         2.941735         2.033367
