19
Iteration:  1931charge 0 multiplicity 1
 O         1.641112         2.821092         1.755291
 C         0.618824         1.847745         1.942340
 C         0.534362         0.887319         3.218619
 C        -0.287981        -0.047367         2.206236
 C        -1.317593         0.870615         1.307349
 C        -0.540317         0.578186         0.035212
 C         0.591389         0.441530         1.013016
 O         1.825337        -0.164337         0.953955
 C        -0.759239         2.338601         1.530733
 H         1.789974         2.824349         0.783886
 H         1.558808         0.360767         3.217494
 H         0.251300         1.179507         4.194876
 H        -0.485546        -1.190629         2.383687
 H        -2.429780         0.869027         1.172415
 H        -0.812709        -0.455735        -0.386534
 H        -0.734001         1.433003        -0.627998
 H         1.755846        -0.976249         0.447776
 H        -0.826444         2.840159         0.537453
 H        -1.019194         3.008015         2.415773
