19
Iteration:   677
 O         1.779796         2.634635         1.880256
 C         0.673001         1.802121         1.886627
 C         0.371913         1.016853         3.221578
 C        -0.454629        -0.006864         2.303718
 C        -1.357115         0.881095         1.359126
 C        -0.585390         0.399216         0.119286
 C         0.685689         0.401808         1.055447
 O         1.866132        -0.001845         0.509471
 C        -0.714504         2.314428         1.531042
 H         1.564621         3.556161         1.621740
 H         1.328925         0.452898         3.423353
 H         0.037341         1.559154         4.077082
 H        -0.819014        -0.881225         2.699139
 H        -2.480822         0.762091         1.521216
 H        -0.953712        -0.561523        -0.227011
 H        -0.643613         1.104399        -0.753347
 H         2.447027        -0.252612         1.239924
 H        -0.546693         2.924013         0.593876
 H        -1.107475         2.895870         2.353625
