19
Iteration:  1031
 O         1.747175         2.624020         1.661299
 C         0.619722         1.833564         1.943087
 C         0.531191         0.856127         3.086901
 C        -0.415412         0.011237         2.165586
 C        -1.342604         0.971330         1.289636
 C        -0.525647         0.595020        -0.008976
 C         0.585023         0.467121         1.049892
 O         1.887076        -0.133457         0.874575
 C        -0.862627         2.283440         1.763799
 H         1.576857         3.020255         0.782938
 H         1.427513         0.343972         3.281799
 H         0.335588         1.202425         4.123150
 H        -0.580063        -0.955285         2.371260
 H        -2.398125         0.853978         1.386248
 H        -0.717616        -0.434403        -0.361640
 H        -0.525680         1.382299        -0.805407
 H         2.315263         0.210507         1.721885
 H        -0.914051         3.206762         1.170291
 H        -1.158388         2.493693         2.786320
