19
Iteration:   773
 O         1.604768         2.782319         1.878215
 C         0.685772         1.811887         1.936707
 C         0.470179         0.895090         3.252141
 C        -0.259252         0.031731         2.226119
 C        -1.328406         0.963979         1.371562
 C        -0.559683         0.513777         0.065011
 C         0.590383         0.441314         1.007213
 O         1.836085        -0.204425         0.622005
 C        -0.708216         2.325596         1.570281
 H         1.535224         3.251388         1.026771
 H         1.398335         0.316197         3.516616
 H         0.056962         1.460936         4.080180
 H        -0.593448        -0.993709         2.331269
 H        -2.283633         0.839160         1.472891
 H        -0.804609        -0.470612        -0.363795
 H        -0.347402         1.222974        -0.788030
 H         1.691985        -1.093919         1.158113
 H        -0.624742         2.841178         0.664159
 H        -1.185767         2.975074         2.266995
