19
Iteration:  2469
 O         1.642729         2.955837         1.984822
 C         0.649383         1.919189         1.916281
 C         0.567959         1.011116         3.094041
 C        -0.282085         0.060152         2.298151
 C        -1.307550         0.866522         1.339657
 C        -0.563654         0.350798         0.104177
 C         0.635563         0.369237         1.051677
 O         1.743095        -0.466585         0.797140
 C        -0.780626         2.385516         1.341016
 H         1.284834         3.491396         1.238534
 H         1.588835         0.651072         3.193429
 H         0.176551         1.507565         4.062320
 H        -0.332454        -1.040718         2.537437
 H        -2.383065         0.756808         1.417256
 H        -0.963573        -0.636507        -0.228773
 H        -0.377511         1.076898        -0.768780
 H         2.474371         0.243496         0.647297
 H        -0.697060         2.749623         0.273317
 H        -1.390731         3.204484         1.905514
