19
Iteration:  3046charge 0 multiplicity 1
 O         1.810625         2.593378         1.822543
 C         0.690803         1.794725         1.847143
 C         0.501610         1.135536         3.161525
 C        -0.384687         0.143069         2.299469
 C        -1.397179         0.877688         1.268594
 C        -0.574344         0.309177         0.089194
 C         0.580598         0.392772         1.064468
 O         1.841904        -0.100950         0.815940
 C        -0.821913         2.262095         1.529333
 H         1.704658         3.404769         1.304526
 H         1.397320         0.677064         3.548867
 H         0.205059         1.795093         3.969247
 H        -0.790310        -0.889920         2.385814
 H        -2.552762         0.836826         1.379869
 H        -0.694971        -0.722192        -0.251787
 H        -0.645684         0.988896        -0.843000
 H         2.391405         0.648424         0.642192
 H        -0.741043         2.954992         0.669041
 H        -1.264964         2.825354         2.383183
