19
Iteration:     2charge 0 multiplicity 1
 O         1.750778         2.618266         1.721957
 C         0.634958         1.802058         1.905921
 C         0.428366         0.911916         3.170782
 C        -0.334956         0.013598         2.189061
 C        -1.364234         0.888929         1.335129
 C        -0.563268         0.509677         0.049437
 C         0.602828         0.464938         1.038815
 O         1.858793        -0.070776         0.763671
 C        -0.792578         2.308127         1.637554
 H         1.961846         3.062634         2.547477
 H         1.385902         0.461008         3.451141
 H        -0.074176         1.374265         4.043422
 H        -0.581014        -1.003802         2.397552
 H        -2.368319         0.738354         1.395093
 H        -0.782086        -0.472418        -0.333060
 H        -0.540369         1.238451        -0.782413
 H         2.515791         0.661320         0.845307
 H        -0.806999         2.977334         0.751218
 H        -1.213375         2.796615         2.500481
