19
Iteration:  2838charge 0 multiplicity 1
 O         1.621502         2.724468         1.618827
 C         0.638205         1.786425         1.825891
 C         0.499002         0.985249         3.126225
 C        -0.367997         0.045124         2.231271
 C        -1.374910         0.932171         1.363093
 C        -0.540923         0.459728         0.069881
 C         0.588696         0.367110         1.099790
 O         1.945879        -0.184505         1.006199
 C        -0.782240         2.359187         1.499051
 H         2.351164         2.622030         2.254460
 H         1.380151         0.587705         3.591422
 H         0.000103         1.439629         4.020665
 H        -0.549725        -0.888623         2.737509
 H        -2.548208         0.761057         1.315793
 H        -0.888455        -0.415335        -0.449095
 H        -0.583893         1.216403        -0.670384
 H         2.336437         0.319185         0.322095
 H        -0.801713         2.843761         0.507786
 H        -1.109444         3.041479         2.301876
