19
Iteration:  2891
 O         1.836421         2.523925         1.673191
 C         0.596628         1.765452         1.861380
 C         0.350950         1.073814         3.265449
 C        -0.405168         0.109555         2.260935
 C        -1.296452         0.947866         1.317135
 C        -0.478184         0.330966         0.114990
 C         0.614680         0.440681         1.114145
 O         1.863321        -0.072839         0.727609
 C        -0.850444         2.323506         1.530186
 H         1.738826         3.467476         1.891034
 H         1.339153         0.639736         3.471062
 H        -0.034446         1.599705         4.173134
 H        -0.640677        -0.854187         2.586484
 H        -2.428553         0.799163         1.476772
 H        -0.665616        -0.803402        -0.001124
 H        -0.495307         0.789681        -0.960469
 H         2.483135         0.746300         0.746280
 H        -0.993089         3.083583         0.709253
 H        -1.294893         2.792604         2.431599
