19
Iteration:  3774charge 0 multiplicity 1
 O         1.764822         2.756353         1.746239
 C         0.685609         1.844175         1.899313
 C         0.355721         1.087436         3.221746
 C        -0.328940         0.121396         2.264447
 C        -1.348052         0.838561         1.283988
 C        -0.611198         0.154978         0.056153
 C         0.545576         0.472794         1.026855
 O         1.859846        -0.127716         0.874215
 C        -0.694523         2.402183         1.508692
 H         2.604839         2.243654         1.844996
 H         1.274148         0.733970         3.684704
 H        -0.371851         1.567109         3.934318
 H        -0.670942        -0.915379         2.580964
 H        -2.424929         0.734028         1.297864
 H        -0.722380        -0.927085        -0.000490
 H        -0.790777         0.538180        -0.956981
 H         2.252428         0.518374         0.127993
 H        -0.719600         2.918610         0.597242
 H        -1.090886         2.868768         2.346042
