19
Iteration:  1081
 O         1.765361         2.752235         2.003588
 C         0.670484         1.861109         1.919741
 C         0.351936         1.014008         3.174606
 C        -0.262519         0.059338         2.131334
 C        -1.314212         0.869605         1.413828
 C        -0.574948         0.439164         0.075568
 C         0.652570         0.443598         1.006681
 O         1.798527        -0.314648         0.557249
 C        -0.767196         2.334951         1.594839
 H         1.729553         3.490395         1.372681
 H         1.168798         0.681361         3.893416
 H        -0.330053         1.561657         3.853647
 H        -0.540262        -1.081182         2.414369
 H        -2.456276         0.645707         1.532561
 H        -1.044766        -0.540984        -0.154093
 H        -0.724735         1.063879        -0.813687
 H         2.517943         0.280312         0.573246
 H        -0.599055         2.980878         0.715281
 H        -1.226618         3.036214         2.355360
