19
Iteration:  2687charge 0 multiplicity 1
 O         1.641559         2.666313         1.601665
 C         0.631424         1.769008         1.821120
 C         0.431690         1.041435         3.194662
 C        -0.373312         0.088041         2.318252
 C        -1.354012         0.800606         1.366311
 C        -0.462964         0.535221         0.061377
 C         0.636143         0.427480         1.118233
 O         1.945871        -0.064933         0.889171
 C        -0.832276         2.310959         1.490112
 H         2.372733         2.322005         2.134956
 H         1.358046         0.592538         3.501408
 H        -0.089050         1.610185         4.013348
 H        -0.868682        -0.904464         2.633271
 H        -2.485823         0.583329         1.442301
 H        -0.896176        -0.321961        -0.499432
 H        -0.258702         1.482380        -0.547152
 H         1.953132        -0.943298         0.580291
 H        -0.848152         2.848614         0.559925
 H        -1.170076         2.833149         2.397875
