19
Iteration:  3047charge 0 multiplicity 1
 O         1.811390         2.589060         1.825529
 C         0.694419         1.789856         1.848037
 C         0.497747         1.136100         3.158358
 C        -0.374451         0.153968         2.295255
 C        -1.392698         0.878456         1.269097
 C        -0.582542         0.310379         0.095514
 C         0.571626         0.395032         1.059310
 O         1.845387        -0.096091         0.821310
 C        -0.828869         2.258609         1.521900
 H         1.703738         3.384917         1.303067
 H         1.414227         0.652754         3.528517
 H         0.233362         1.788099         3.982459
 H        -0.801973        -0.897759         2.399495
 H        -2.529769         0.804385         1.346668
 H        -0.695540        -0.693413        -0.253240
 H        -0.633298         0.992013        -0.807990
 H         2.376498         0.630066         0.654420
 H        -0.771095         2.941220         0.669895
 H        -1.239807         2.821006         2.378067
