19
Iteration:   630charge 0 multiplicity 1
 O         1.798725         2.734678         1.987332
 C         0.690696         1.895561         1.903262
 C         0.387481         0.958648         3.171785
 C        -0.289395         0.056859         2.209462
 C        -1.335423         0.838449         1.407045
 C        -0.613733         0.469588         0.071264
 C         0.609449         0.487584         1.038259
 O         1.796022        -0.300616         0.572393
 C        -0.752409         2.332668         1.538828
 H         1.544932         3.522304         1.490533
 H         1.353182         0.652819         3.536615
 H        -0.241539         1.424427         3.985192
 H        -0.398793        -1.076374         2.469479
 H        -2.315484         0.745888         1.416093
 H        -0.783162        -0.553892        -0.428680
 H        -0.718773         1.237629        -0.803280
 H         2.565402         0.338142         0.889151
 H        -0.934227         2.835005         0.621305
 H        -1.358429         2.838719         2.306294
