19
Iteration:  1851charge 0 multiplicity 1
 O         1.751792         2.631785         1.957670
 C         0.591174         1.829830         1.878864
 C         0.376609         0.976527         3.164713
 C        -0.308858        -0.013039         2.290585
 C        -1.330612         0.886383         1.399640
 C        -0.648716         0.386117         0.140463
 C         0.588291         0.506303         1.034067
 O         1.966651         0.015466         0.678894
 C        -0.722014         2.348008         1.414447
 H         2.198124         2.861549         1.112863
 H         1.345868         0.722864         3.520945
 H        -0.243736         1.412593         4.021755
 H        -0.632923        -1.025836         2.332961
 H        -2.352909         0.799312         1.642115
 H        -0.859365        -0.758561        -0.067473
 H        -0.885821         0.953285        -0.826051
 H         1.755355        -0.846543         0.271377
 H        -0.643476         2.770621         0.388632
 H        -1.134639         3.112088         2.069949
