19
Iteration:  3508charge 0 multiplicity 1
 O         1.631908         2.701070         1.716163
 C         0.581189         1.847699         1.835267
 C         0.475841         1.056460         3.126435
 C        -0.302957         0.068437         2.304498
 C        -1.316239         0.899310         1.320941
 C        -0.412663         0.570630         0.114750
 C         0.644586         0.465363         1.086970
 O         1.772430        -0.367554         0.887725
 C        -0.788856         2.299526         1.558302
 H         1.773671         3.055546         0.837551
 H         1.606848         0.725901         3.351362
 H         0.195528         1.409876         4.185566
 H        -0.629135        -0.966542         2.494373
 H        -2.434764         0.569858         1.266716
 H        -0.635724        -0.430013        -0.258431
 H        -0.342128         1.275065        -0.708397
 H         2.345095         0.206961         0.465024
 H        -1.057435         2.878974         0.666804
 H        -1.281776         2.832340         2.394596
