19
Iteration:   793charge 0 multiplicity 1
 O         1.727580         2.826566         1.965595
 C         0.710949         1.829593         1.933850
 C         0.385781         0.934081         3.166098
 C        -0.353039         0.018006         2.183185
 C        -1.335437         0.941227         1.372816
 C        -0.599597         0.399504         0.109172
 C         0.698432         0.410263         1.046076
 O         1.804896        -0.223035         0.524327
 C        -0.690584         2.361963         1.564907
 H         1.521674         3.519565         1.299781
 H         1.321528         0.528073         3.508633
 H        -0.284726         1.328440         3.944092
 H        -0.680772        -0.979812         2.534321
 H        -2.418929         0.865553         1.432968
 H        -0.940856        -0.616364        -0.032112
 H        -0.911922         0.906847        -0.744001
 H         2.530740        -0.418628         1.194848
 H        -0.717434         2.916587         0.656534
 H        -1.145750         2.948856         2.364289
