19
Iteration:  1637
 O         1.709212         2.733585         1.738951
 C         0.648950         1.748748         1.891236
 C         0.570495         0.880743         3.140578
 C        -0.368952        -0.000674         2.113214
 C        -1.416857         0.906813         1.342979
 C        -0.549915         0.639842        -0.020020
 C         0.593612         0.448243         1.018179
 O         1.886913        -0.142186         1.026356
 C        -0.790942         2.296444         1.647016
 H         1.501865         3.222871         0.926073
 H         1.577303         0.490200         3.222352
 H         0.329453         1.436627         4.054051
 H        -0.603706        -1.065868         2.277217
 H        -2.387086         0.843925         1.587055
 H        -0.961094        -0.149461        -0.657884
 H        -0.611189         1.537922        -0.718295
 H         1.879438        -1.077998         0.623688
 H        -0.753247         2.910157         0.833227
 H        -1.158077         2.739211         2.535265
