19
Iteration:  1208charge 0 multiplicity 1
 O         1.683253         2.674608         1.690524
 C         0.611020         1.795486         1.889102
 C         0.520772         0.872938         3.214360
 C        -0.366153         0.036441         2.261392
 C        -1.369719         0.915647         1.344113
 C        -0.512755         0.565845         0.018869
 C         0.615706         0.476046         1.036917
 O         1.835125        -0.185728         0.765333
 C        -0.750865         2.296816         1.650323
 H         1.404595         3.581166         1.924366
 H         1.523998         0.351995         3.407037
 H         0.047503         1.481617         4.021722
 H        -0.610884        -1.064031         2.345352
 H        -2.465689         0.716662         1.582322
 H        -0.811554        -0.404485        -0.498606
 H        -0.416105         1.370940        -0.754483
 H         2.615818         0.254599         1.043519
 H        -0.697570         2.883611         0.720401
 H        -1.276542         2.877368         2.444041
