19
Iteration:  4286charge 0 multiplicity 1
 O         1.760102         2.475152         1.432299
 C         0.515868         1.839940         1.896128
 C         0.377586         1.118387         3.227095
 C        -0.359460         0.138798         2.234345
 C        -1.375352         0.840475         1.350895
 C        -0.515104         0.425643         0.051847
 C         0.684285         0.530606         1.123671
 O         1.921540        -0.121983         1.023273
 C        -0.820311         2.296810         1.523663
 H         2.363833         2.914208         2.081458
 H         1.272488         0.584340         3.473457
 H        -0.222082         1.410300         4.177782
 H        -0.518261        -0.933309         2.514049
 H        -2.410921         0.780281         1.404064
 H        -0.579187        -0.720477        -0.019989
 H        -0.595258         1.107422        -0.842895
 H         2.460183         0.704426         0.810701
 H        -0.709096         2.729827         0.550716
 H        -1.473941         2.868774         2.179414
