19
Iteration:  2651charge 0 multiplicity 1
 O         1.535230         2.914224         1.761793
 C         0.672337         1.883297         1.855675
 C         0.455364         0.977350         3.213278
 C        -0.314574         0.128754         2.196953
 C        -1.273978         0.964780         1.268924
 C        -0.548054         0.258031         0.085063
 C         0.663060         0.456783         0.996789
 O         1.851016        -0.294984         0.914430
 C        -0.715304         2.341582         1.573147
 H         2.441880         2.611273         1.637248
 H         1.375578         0.579879         3.659292
 H        -0.198024         1.374107         3.988620
 H        -0.698423        -0.809548         2.309328
 H        -2.360689         0.593220         1.290615
 H        -0.811444        -0.811938         0.052418
 H        -0.612008         0.640148        -0.906576
 H         1.871473        -0.740370         0.092051
 H        -0.740884         3.166888         0.828600
 H        -1.130619         2.764543         2.470204
