19
Iteration:   413
 O         1.531958         2.826503         1.686032
 C         0.640162         1.818122         1.925273
 C         0.484422         0.792497         3.134665
 C        -0.352716        -0.015108         2.120352
 C        -1.376942         0.993567         1.333861
 C        -0.476663         0.608329        -0.014407
 C         0.641549         0.436525         1.016295
 O         1.956177        -0.188023         0.880412
 C        -0.784873         2.358114         1.781603
 H         2.322095         2.346281         1.328758
 H         1.439331         0.346638         3.212211
 H         0.018590         1.114868         4.085528
 H        -0.601855        -1.079003         2.440066
 H        -2.360639         0.752350         1.235171
 H        -0.830447        -0.313788        -0.420063
 H        -0.429009         1.417364        -0.697836
 H         1.817150        -1.193079         0.800224
 H        -0.807687         3.177686         1.116087
 H        -1.094840         2.714320         2.779504
