19
Iteration:  2525charge 0 multiplicity 1
 O         1.811979         2.561936         1.650326
 C         0.563923         1.840864         1.860439
 C         0.455291         1.029217         3.190008
 C        -0.355927         0.125081         2.284369
 C        -1.354356         0.857083         1.325504
 C        -0.491097         0.444841         0.055015
 C         0.629213         0.416641         1.142196
 O         1.906006        -0.131660         0.896518
 C        -0.901900         2.320608         1.552395
 H         1.646535         3.357720         1.113686
 H         1.497427         0.713943         3.373100
 H        -0.088225         1.311502         4.151293
 H        -0.679797        -0.978999         2.536179
 H        -2.399912         0.708884         1.431714
 H        -0.758305        -0.547675        -0.341992
 H        -0.424179         1.126333        -0.863328
 H         2.245080         0.612598         0.447309
 H        -1.054430         2.870638         0.591471
 H        -1.421775         2.909677         2.413318
