19
Iteration:  3014charge 0 multiplicity 1
 O         1.720994         2.726873         1.675197
 C         0.673449         1.838927         1.874807
 C         0.309698         0.998512         3.277614
 C        -0.287404         0.075191         2.212028
 C        -1.310981         0.957301         1.364713
 C        -0.533438         0.411645         0.189878
 C         0.704650         0.352496         1.101661
 O         1.835269        -0.261187         0.725579
 C        -0.754418         2.345590         1.526415
 H         1.401774         3.380823         1.043972
 H         1.171457         0.558686         3.770765
 H        -0.442044         1.522211         3.906318
 H        -0.813494        -0.932977         2.087334
 H        -2.446801         0.801772         1.561676
 H        -0.807973        -0.556005        -0.157806
 H        -0.663261         1.199042        -0.600871
 H         2.574647         0.288772         1.153646
 H        -0.613564         2.864699         0.567800
 H        -1.286633         3.046987         2.203768
