19
Iteration:   716charge 0 multiplicity 1
 O         1.747565         2.617244         1.733322
 C         0.606301         1.830426         1.927400
 C         0.462203         0.909397         3.168040
 C        -0.264499         0.007220         2.157153
 C        -1.349953         0.921602         1.309057
 C        -0.614900         0.531254         0.032679
 C         0.554073         0.490990         1.025788
 O         1.877357        -0.143536         0.872657
 C        -0.760279         2.355340         1.703449
 H         1.815123         2.952671         0.824479
 H         1.437151         0.535073         3.386426
 H         0.017212         1.367124         4.112174
 H        -0.697552        -1.061510         2.289927
 H        -2.364909         0.582910         1.342541
 H        -0.879109        -0.521758        -0.213012
 H        -0.562859         1.094100        -0.895167
 H         2.469103         0.469043         0.463563
 H        -0.968422         3.132257         1.010762
 H        -1.272336         2.703563         2.621487
