19
Iteration:  1651charge 0 multiplicity 1
 O         1.662268         2.743768         1.781981
 C         0.694577         1.794304         1.858909
 C         0.570013         0.910479         3.078839
 C        -0.437330         0.049373         2.229167
 C        -1.341820         0.912817         1.301136
 C        -0.496544         0.594778         0.057185
 C         0.593418         0.443158         1.056885
 O         1.828287        -0.113177         0.884590
 C        -0.762248         2.264746         1.684089
 H         1.749583         2.999086         0.843309
 H         1.332864         0.077861         3.254856
 H         0.261862         1.287807         4.061809
 H        -0.656339        -1.013173         2.331205
 H        -2.447028         0.656558         0.981893
 H        -0.594326        -0.449495        -0.322284
 H        -0.238103         1.380181        -0.651961
 H         1.659179        -1.053563         0.685429
 H        -0.985909         3.019965         0.910853
 H        -1.185251         2.770430         2.569748
