19
Iteration:  2940
 O         1.727485         2.706397         1.814995
 C         0.660713         1.906335         1.879178
 C         0.412873         1.018295         3.159790
 C        -0.310940         0.092626         2.203590
 C        -1.296621         0.858293         1.348295
 C        -0.655087         0.353532         0.117551
 C         0.627731         0.454908         1.054236
 O         1.821278        -0.198784         0.786125
 C        -0.727494         2.313416         1.505382
 H         1.981324         3.073640         0.953607
 H         1.335338         0.582099         3.621431
 H        -0.291971         1.525430         3.820721
 H        -0.628693        -1.000775         2.404290
 H        -2.354443         0.786032         1.526182
 H        -0.809086        -0.664889        -0.108502
 H        -0.574646         0.941214        -0.748965
 H         2.520564         0.186478         1.237759
 H        -0.698348         2.995919         0.661186
 H        -1.209896         2.871919         2.314460
