19
Iteration:  1532
 O         1.782912         2.774386         1.849206
 C         0.716356         1.877186         1.879945
 C         0.364764         1.011713         3.189433
 C        -0.295229         0.031124         2.130466
 C        -1.296588         0.846074         1.315976
 C        -0.694870         0.392210         0.032064
 C         0.604985         0.494538         1.037120
 O         1.861409        -0.142249         0.826565
 C        -0.764134         2.266013         1.583064
 H         2.562813         2.282800         2.175796
 H         1.318473         0.760997         3.752909
 H        -0.312574         1.547481         3.867549
 H        -0.705336        -0.949469         2.279412
 H        -2.506045         0.825570         1.413658
 H        -0.799442        -0.710255        -0.053332
 H        -0.791241         1.026703        -0.806067
 H         1.929368        -0.485400        -0.064216
 H        -0.854512         3.052064         0.698158
 H        -1.183868         2.905939         2.424423
