19
Iteration:  1898
 O         1.755972         2.624266         1.821423
 C         0.643999         1.763247         1.885165
 C         0.338917         1.081801         3.204569
 C        -0.423706         0.091414         2.234925
 C        -1.343515         0.872852         1.304005
 C        -0.542257         0.371322         0.081460
 C         0.694151         0.432570         1.009395
 O         1.944662         0.015462         0.709375
 C        -0.757021         2.311872         1.671374
 H         1.884722         2.897182         0.891908
 H         1.166641         0.435651         3.627052
 H        -0.103459         1.650139         3.992496
 H        -0.743199        -0.944093         2.612017
 H        -2.416640         0.869095         1.208265
 H        -0.874382        -0.687043        -0.124934
 H        -0.649652         0.889129        -0.872780
 H         2.002891        -0.836687         0.365951
 H        -1.104817         3.085919         0.967178
 H        -1.103824         2.702525         2.667141
