19
Iteration:  2101
 O         1.585102         2.820439         1.733463
 C         0.608072         1.821365         1.921138
 C         0.564464         1.003946         3.102822
 C        -0.356009         0.011126         2.175774
 C        -1.320224         0.927305         1.270173
 C        -0.425893         0.652921        -0.015417
 C         0.639127         0.419913         1.058536
 O         1.806975        -0.434995         0.966948
 C        -0.793032         2.270375         1.692944
 H         1.301855         3.490117         1.084257
 H         1.514809         0.496311         3.359732
 H         0.117965         1.487733         4.035716
 H        -0.428081        -1.070004         2.452831
 H        -2.415361         0.809689         1.371351
 H        -0.853377        -0.214578        -0.424207
 H        -0.270918         1.426846        -0.712282
 H         2.464660        -0.132958         0.342818
 H        -0.901132         2.866467         0.743655
 H        -1.219880         2.771324         2.591644
