19
Iteration:  4791
 O         1.771786         2.640243         1.570337
 C         0.560762         1.918593         1.899433
 C         0.376774         1.197354         3.225797
 C        -0.333115         0.146815         2.253147
 C        -1.358482         0.869602         1.259529
 C        -0.500280         0.198155         0.115531
 C         0.686933         0.386304         1.183349
 O         1.847359        -0.173461         0.850273
 C        -0.810512         2.304822         1.457165
 H         1.748030         3.431964         2.135206
 H         1.291150         0.821615         3.724979
 H        -0.195385         1.620373         4.109889
 H        -0.576306        -0.767601         2.620351
 H        -2.348257         0.592551         1.348339
 H        -0.831819        -0.914375         0.043832
 H        -0.405515         0.824740        -0.781990
 H         2.686244         0.323281         1.112546
 H        -0.862718         2.880957         0.507435
 H        -1.290853         2.842829         2.226300
