19
Iteration:  3385charge 0 multiplicity 1
 O         1.713592         2.669060         1.625888
 C         0.596045         1.885360         1.922942
 C         0.406950         0.962301         3.169492
 C        -0.349136         0.095785         2.233412
 C        -1.282454         0.902918         1.311036
 C        -0.572958         0.452534         0.113091
 C         0.635247         0.365677         1.054095
 O         1.868527        -0.256034         0.880114
 C        -0.745025         2.394826         1.551289
 H         1.471442         3.286695         0.914608
 H         1.369591         0.522445         3.527944
 H        -0.233187         1.508155         4.021517
 H        -0.500719        -0.975281         2.492168
 H        -2.263279         0.892843         1.593684
 H        -0.784708        -0.526775        -0.259764
 H        -0.405514         1.131331        -0.727925
 H         2.511605         0.387638         1.394756
 H        -0.864708         3.143713         0.751386
 H        -1.291682         2.688952         2.442957
