19
Iteration:  4774charge 0 multiplicity 1
 O         1.790827         2.618780         1.502696
 C         0.629178         1.877917         1.803664
 C         0.368127         1.075151         3.228916
 C        -0.338892         0.106881         2.389401
 C        -1.333250         0.849676         1.299888
 C        -0.497795         0.290051         0.128521
 C         0.586769         0.451105         1.102293
 O         1.907536        -0.115748         0.966896
 C        -0.918394         2.352154         1.389876
 H         2.213934         2.962682         2.301249
 H         1.353293         0.623361         3.489856
 H        -0.106616         1.608670         4.034229
 H        -0.656457        -1.036533         2.548272
 H        -2.482103         0.714729         1.359570
 H        -0.578259        -0.784736         0.121767
 H        -0.416093         0.866547        -0.832975
 H         2.523667         0.660644         1.238957
 H        -0.914922         2.797387         0.395258
 H        -1.473831         2.891152         2.225598
