19
Iteration:  2630
 O         1.611635         2.964726         1.887397
 C         0.677440         1.875914         1.855072
 C         0.429824         1.079180         3.091317
 C        -0.287336         0.038082         2.227752
 C        -1.362690         0.877831         1.367778
 C        -0.589797         0.364892         0.074745
 C         0.662882         0.420133         1.052569
 O         1.888356        -0.374166         0.889600
 C        -0.768581         2.308778         1.459234
 H         2.495694         2.679710         1.583133
 H         1.342368         0.587767         3.440458
 H        -0.019202         1.627342         3.924795
 H        -0.417473        -0.937022         2.524415
 H        -2.538491         0.821192         1.568770
 H        -0.973421        -0.637424        -0.127984
 H        -0.536620         0.916007        -0.875255
 H         2.116257        -0.503489        -0.120286
 H        -0.790093         2.835390         0.497464
 H        -1.237273         2.979355         2.137856
