19
Iteration:  1528charge 0 multiplicity 1
 O         1.777158         2.787626         1.836527
 C         0.686922         1.870312         1.927669
 C         0.395109         0.985222         3.200304
 C        -0.295219         0.062208         2.162281
 C        -1.348214         0.874289         1.299390
 C        -0.665951         0.408198         0.016960
 C         0.616804         0.465156         1.012662
 O         1.870917        -0.161518         0.852818
 C        -0.786160         2.277240         1.576055
 H         2.610770         2.258834         1.909399
 H         1.343492         0.769824         3.631715
 H        -0.269048         1.550305         3.882806
 H        -0.613109        -0.977279         2.357243
 H        -2.357153         0.858745         1.487319
 H        -0.850916        -0.642206        -0.257513
 H        -0.702324         0.998421        -0.957024
 H         1.899090        -0.470692        -0.117238
 H        -0.873638         2.971053         0.758055
 H        -1.207899         2.751914         2.453312
