19
Iteration:  1238
 O         1.825729         2.745134         1.893449
 C         0.651789         1.829305         1.874173
 C         0.336911         0.909097         3.153187
 C        -0.306139         0.012748         2.185386
 C        -1.372321         0.949867         1.372188
 C        -0.674921         0.311697         0.126146
 C         0.635262         0.474225         0.968516
 O         1.878696        -0.134319         0.670073
 C        -0.693870         2.327177         1.584743
 H         1.708633         3.483984         2.513531
 H         1.153231         0.618639         3.771997
 H        -0.282524         1.480366         3.882102
 H        -0.568427        -0.943806         2.244650
 H        -2.376723         0.862127         1.704795
 H        -1.008748        -0.701899         0.245778
 H        -0.700960         0.801069        -0.865793
 H         2.358153         0.455982        -0.049577
 H        -0.649221         2.853722         0.606856
 H        -1.231867         2.932806         2.268532
