19
Iteration:  2909charge 0 multiplicity 1
 O         1.776590         2.588319         1.736908
 C         0.628574         1.858739         1.929338
 C         0.363714         1.055563         3.202298
 C        -0.406336         0.080408         2.387786
 C        -1.374917         0.846968         1.324806
 C        -0.583521         0.402801         0.148891
 C         0.660130         0.343030         1.088194
 O         1.917851        -0.107108         0.660188
 C        -0.728308         2.327920         1.480479
 H         1.576332         3.488095         1.408904
 H         1.180065         0.615654         3.802108
 H        -0.186395         1.596932         3.970217
 H        -0.844156        -0.892952         2.699834
 H        -2.388819         0.748871         1.279954
 H        -0.863673        -0.535149        -0.373524
 H        -0.364742         1.060517        -0.699640
 H         2.470207         0.761367         0.654819
 H        -0.584890         2.829785         0.497431
 H        -1.226846         3.019861         2.180022
