19
Iteration:    78charge 0 multiplicity 1
 O         1.742622         2.829748         1.857111
 C         0.692583         1.795413         1.916258
 C         0.416245         0.919472         3.186740
 C        -0.306169         0.025087         2.169121
 C        -1.320362         0.927623         1.314128
 C        -0.623030         0.471283         0.057001
 C         0.598667         0.410586         1.025302
 O         1.830863        -0.148628         0.728392
 C        -0.730837         2.226663         1.574797
 H         1.951026         3.040306         2.788472
 H         1.285849         0.483872         3.589013
 H        -0.234138         1.305516         3.971349
 H        -0.749294        -0.901302         2.328240
 H        -2.319761         0.759335         1.602350
 H        -0.864874        -0.495826        -0.248725
 H        -0.647446         1.183115        -0.783932
 H         2.239873         0.249339        -0.107580
 H        -0.786207         2.876543         0.685320
 H        -1.187052         2.678802         2.399597
