19
Iteration:  4358
 O         1.726927         2.829851         1.735463
 C         0.597786         1.965800         1.815154
 C         0.398148         1.058297         3.180503
 C        -0.178125         0.056627         2.259407
 C        -1.339789         0.913572         1.332278
 C        -0.536744         0.219367         0.168583
 C         0.639357         0.413565         1.085439
 O         1.755223        -0.358990         0.901256
 C        -0.782948         2.374528         1.351716
 H         1.734750         3.562335         2.407452
 H         1.561340         1.082094         3.295665
 H        -0.172935         1.419661         4.055503
 H        -0.476736        -1.053921         2.578917
 H        -2.508065         0.771531         1.310265
 H        -0.876814        -0.884140         0.091051
 H        -0.343667         0.790086        -0.867657
 H         2.487501         0.304819         0.757142
 H        -0.797702         2.813609         0.257898
 H        -1.311017         3.022539         2.123871
