19
Iteration:  2726charge 0 multiplicity 1
 O         1.816157         2.664314         1.657550
 C         0.638468         1.844581         1.874745
 C         0.321630         0.951091         3.217652
 C        -0.388881         0.072960         2.201458
 C        -1.352677         0.906875         1.308342
 C        -0.539398         0.289741         0.103212
 C         0.608661         0.492740         1.078367
 O         1.926314         0.067727         0.869372
 C        -0.800577         2.345542         1.544827
 H         2.426178         2.226447         1.001871
 H         1.180592         0.387073         3.679308
 H        -0.220250         1.516515         3.968746
 H        -0.655440        -0.922614         2.443453
 H        -2.385669         0.580521         1.519480
 H        -0.716340        -0.783794        -0.031148
 H        -0.503874         0.704076        -0.870222
 H         1.936169        -0.860946         1.267119
 H        -0.902207         3.154948         0.781769
 H        -1.295217         2.851040         2.377657
