19
Iteration:  3681charge 0 multiplicity 1
 O         1.678106         2.745561         1.528475
 C         0.690519         1.858781         1.854674
 C         0.458966         0.932060         3.188311
 C        -0.261898         0.052305         2.197574
 C        -1.368843         0.990006         1.335509
 C        -0.515487         0.462628         0.024037
 C         0.593832         0.357452         1.100291
 O         1.872933        -0.314588         1.012080
 C        -0.887702         2.382949         1.610313
 H         1.815013         3.404843         2.224321
 H         1.423317         0.636823         3.603885
 H        -0.079295         1.557562         3.904553
 H        -0.434750        -1.034164         2.341992
 H        -2.446343         0.774989         1.375972
 H        -0.815386        -0.576764        -0.338118
 H        -0.351629         1.007101        -1.027080
 H         2.420641         0.421927         0.712600
 H        -0.995954         3.102365         0.736786
 H        -1.280289         2.756877         2.599996
