19
Iteration:  1329charge 0 multiplicity 1
 O         1.620035         2.830335         1.696436
 C         0.655572         1.763346         1.886949
 C         0.529273         0.793230         3.167930
 C        -0.351193         0.039198         2.154006
 C        -1.356177         0.968129         1.267230
 C        -0.558323         0.544468        -0.021618
 C         0.593329         0.451417         1.001114
 O         1.875150        -0.132403         1.012759
 C        -0.767151         2.351378         1.701440
 H         2.058507         2.492859         0.899466
 H         1.542276         0.237594         3.257409
 H         0.320389         1.311884         4.135424
 H        -0.718388        -1.050205         2.326995
 H        -2.453747         0.595570         1.361364
 H        -0.878458        -0.489878        -0.198843
 H        -0.267062         1.250868        -0.756896
 H         1.970550        -0.989108         0.596415
 H        -0.697880         3.170098         1.007441
 H        -1.162578         2.774015         2.660219
