19
Iteration:  3476charge 0 multiplicity 1
 O         1.818734         2.764604         1.778231
 C         0.683635         1.839762         1.847605
 C         0.358443         1.082634         3.234164
 C        -0.397818         0.061742         2.289211
 C        -1.281366         0.892594         1.331260
 C        -0.596557         0.379730         0.088691
 C         0.568559         0.407999         0.966316
 O         1.881989        -0.243940         0.757913
 C        -0.710655         2.268074         1.565835
 H         1.544003         3.480608         1.146931
 H         1.341420         0.700050         3.715335
 H        -0.310912         1.677466         3.890823
 H        -0.716900        -0.913687         2.678016
 H        -2.417562         0.643688         1.414913
 H        -1.004489        -0.632259         0.090091
 H        -0.777733         0.783366        -0.859000
 H         2.465114         0.547116         1.110954
 H        -0.910358         2.728160         0.556829
 H        -1.318658         2.848391         2.312558
