19
Iteration:  1987
 O         1.705332         2.731995         1.871476
 C         0.629074         1.895594         1.957333
 C         0.379475         1.004279         3.243257
 C        -0.293589         0.050070         2.183032
 C        -1.308926         0.934911         1.291932
 C        -0.513387         0.341123         0.080009
 C         0.651661         0.411815         1.012473
 O         1.873753        -0.150928         0.623084
 C        -0.773517         2.339907         1.618782
 H         1.661690         3.147009         0.988981
 H         1.283664         0.562856         3.741654
 H        -0.217391         1.464625         4.007100
 H        -0.813770        -0.861547         2.577649
 H        -2.441381         0.871099         1.476763
 H        -0.842713        -0.670579        -0.235134
 H        -0.479586         0.933016        -0.859423
 H         1.940991        -0.957756         1.093010
 H        -0.740992         2.944076         0.695120
 H        -1.272056         2.933131         2.472342
