19
Iteration:   468charge 0 multiplicity 1
 O         1.653803         2.732281         1.870418
 C         0.615659         1.832077         1.870669
 C         0.435742         0.926375         3.184180
 C        -0.259294         0.015936         2.177625
 C        -1.287210         0.929760         1.467514
 C        -0.572939         0.546333         0.072169
 C         0.637908         0.413176         1.018288
 O         1.887746        -0.218412         0.693286
 C        -0.844194         2.357220         1.522206
 H         2.381418         2.289831         2.345525
 H         1.340784         0.499043         3.565266
 H        -0.096872         1.458320         3.992067
 H        -0.614638        -0.993590         2.445920
 H        -2.270532         0.607609         1.564712
 H        -1.008452        -0.281091        -0.379461
 H        -0.527263         1.285345        -0.659631
 H         2.315658         0.265997        -0.109375
 H        -1.039894         2.884147         0.608052
 H        -1.268324         2.902466         2.371200
