19
Iteration:  1862charge 0 multiplicity 1
 O         1.794981         2.539508         1.976363
 C         0.624609         1.872077         1.833657
 C         0.347194         1.008123         3.225787
 C        -0.300163         0.033380         2.204350
 C        -1.340620         0.829686         1.467594
 C        -0.604162         0.394935         0.173388
 C         0.646605         0.447462         1.041567
 O         1.873013         0.074511         0.662339
 C        -0.768195         2.377181         1.384081
 H         2.059670         2.898171         1.090817
 H         1.323140         0.668028         3.462826
 H        -0.179071         1.468028         4.144506
 H        -0.549495        -0.960931         2.511335
 H        -2.346099         0.599240         1.519196
 H        -0.904745        -0.733114        -0.164092
 H        -0.515770         1.128835        -0.706490
 H         1.846785        -0.755502         0.287371
 H        -0.737218         2.603989         0.287929
 H        -1.357645         3.103118         1.908640
