19
Iteration:  2654charge 0 multiplicity 1
 O         1.553263         2.916216         1.728373
 C         0.679083         1.872426         1.879521
 C         0.456929         0.971133         3.189442
 C        -0.306928         0.103400         2.212277
 C        -1.275407         0.940230         1.247028
 C        -0.536192         0.266721         0.083177
 C         0.643566         0.491412         1.052757
 O         1.850244        -0.276786         0.907258
 C        -0.723242         2.338060         1.572544
 H         2.491486         2.593999         1.717231
 H         1.347773         0.566754         3.611026
 H        -0.194154         1.409269         3.994582
 H        -0.802697        -0.895395         2.413189
 H        -2.400870         0.623782         1.289636
 H        -1.010540        -0.760954         0.021266
 H        -0.516795         0.656575        -1.014929
 H         1.908622        -0.802143         0.100076
 H        -0.712584         3.199012         0.935279
 H        -1.234986         2.780897         2.439678
