19
Iteration:  1938charge 0 multiplicity 1
 O         1.602724         2.814822         1.800769
 C         0.683215         1.843363         1.919365
 C         0.574036         0.915776         3.123698
 C        -0.294607         0.021285         2.219950
 C        -1.311123         0.861889         1.332698
 C        -0.537945         0.628697         0.006470
 C         0.539244         0.467037         1.027659
 O         1.806359        -0.207913         0.983015
 C        -0.772650         2.271659         1.537625
 H         1.739035         2.722718         0.839692
 H         1.511933         0.405699         3.166036
 H         0.268155         1.265554         4.176939
 H        -0.219987        -1.025939         2.360230
 H        -2.333061         0.621745         1.300452
 H        -0.704792        -0.349745        -0.575235
 H        -0.714714         1.436165        -0.760927
 H         1.718063        -1.132530         0.507442
 H        -0.649849         2.823213         0.598695
 H        -1.141218         2.807471         2.367602
