19
Iteration:  1151
 O         1.707588         2.668830         1.697214
 C         0.668641         1.758009         1.907625
 C         0.422640         0.880256         3.166869
 C        -0.372362         0.003041         2.184801
 C        -1.345424         0.908040         1.322331
 C        -0.563879         0.586412         0.097773
 C         0.606671         0.465764         1.021690
 O         1.857741        -0.149736         0.809199
 C        -0.697865         2.318320         1.700185
 H         1.337449         3.328925         1.083366
 H         1.224341         0.394413         3.697598
 H        -0.153994         1.441886         4.001186
 H        -0.508874        -0.975095         2.224889
 H        -2.353021         0.699496         1.469852
 H        -0.721242        -0.443260        -0.231157
 H        -0.554674         1.233509        -0.840258
 H         2.561472         0.558654         0.844560
 H        -0.780221         2.992831         0.802777
 H        -1.130403         2.807715         2.544838
