19
Iteration:  4304charge 0 multiplicity 1
 O         1.720288         2.644400         1.437956
 C         0.626215         1.860833         1.822314
 C         0.334364         1.019559         3.203051
 C        -0.287842         0.035559         2.270403
 C        -1.308858         0.907903         1.309728
 C        -0.502429         0.401279         0.095323
 C         0.644946         0.385358         1.168611
 O         1.890169        -0.197489         1.000529
 C        -0.868999         2.409883         1.505003
 H         2.087340         3.054685         2.255066
 H         1.202358         0.714416         3.810611
 H        -0.188950         1.643224         3.883095
 H        -0.650283        -1.021340         2.570069
 H        -2.428833         0.620720         1.363758
 H        -0.799349        -0.647927        -0.034321
 H        -0.228692         1.144141        -0.651129
 H         2.533752         0.506395         0.777884
 H        -1.103743         3.030817         0.636439
 H        -1.253634         2.941791         2.384281
