19
Iteration:  3726charge 0 multiplicity 1
 O         1.682917         2.819757         1.609899
 C         0.629639         1.810230         1.851858
 C         0.505155         1.119294         3.298496
 C        -0.310355         0.063121         2.279230
 C        -1.368769         0.867234         1.278017
 C        -0.480067         0.407126         0.064185
 C         0.582992         0.371601         1.089149
 O         1.767738        -0.240108         0.903411
 C        -0.789174         2.273784         1.489605
 H         2.092581         2.747254         2.474352
 H         1.403393         0.524654         3.661349
 H        -0.028514         1.528306         4.146357
 H        -0.397486        -0.980726         2.428546
 H        -2.467766         0.722822         1.439824
 H        -0.831874        -0.468305        -0.577849
 H        -0.201479         1.297524        -0.699800
 H         2.456226         0.161373         0.374669
 H        -0.640850         2.757593         0.510185
 H        -1.250871         2.876179         2.335081
