19
Iteration:  1762
 O         1.693024         2.786045         1.606584
 C         0.678162         1.737544         1.873808
 C         0.410398         0.925630         3.115546
 C        -0.327534         0.021120         2.184901
 C        -1.363980         0.929208         1.331382
 C        -0.549242         0.549070         0.071844
 C         0.582799         0.442613         1.022981
 O         1.901510        -0.054766         0.863351
 C        -0.773397         2.257848         1.766666
 H         2.522477         2.461883         2.020623
 H         1.183271         0.234611         3.475399
 H        -0.166846         1.321804         3.989211
 H        -0.577674        -1.009846         2.323178
 H        -2.477559         0.703753         1.372969
 H        -0.902766        -0.492715        -0.234301
 H        -0.424320         1.291562        -0.741873
 H         1.844877        -1.026653         0.745090
 H        -0.747835         3.038430         0.996049
 H        -1.066929         2.825091         2.637221
