19
Iteration:   327charge 0 multiplicity 1
 O         1.706357         2.672433         1.975456
 C         0.636370         1.757711         1.979343
 C         0.342186         0.956462         3.213097
 C        -0.352969        -0.026170         2.264023
 C        -1.337727         0.893794         1.376503
 C        -0.569292         0.496621         0.074569
 C         0.610204         0.434036         1.076597
 O         1.879541         0.054684         0.467792
 C        -0.688725         2.268169         1.528413
 H         2.268875         2.573579         1.198974
 H         1.259990         0.566500         3.625317
 H        -0.241946         1.527004         3.982223
 H        -0.553968        -0.981979         2.461182
 H        -2.371299         0.841118         1.385991
 H        -0.874925        -0.425558        -0.406000
 H        -0.664131         1.276997        -0.733706
 H         2.297825        -0.686465         1.031553
 H        -0.437530         2.648716         0.554859
 H        -1.154641         3.056088         2.173974
