19
Iteration:  4838charge 0 multiplicity 1
 O         1.682552         2.844139         1.783672
 C         0.581820         1.925591         1.845384
 C         0.414842         1.164164         3.195143
 C        -0.293619         0.111077         2.305967
 C        -1.327005         0.879488         1.348660
 C        -0.541519         0.255500         0.104319
 C         0.628993         0.342795         1.132877
 O         1.858454        -0.340967         0.798994
 C        -0.723430         2.309127         1.374537
 H         1.468256         3.167502         0.880305
 H         1.320015         0.720397         3.697456
 H        -0.034324         1.672895         4.003931
 H        -0.562500        -1.001684         2.689154
 H        -2.444922         0.842568         1.464362
 H        -0.678222        -0.861548        -0.069451
 H        -0.496316         0.948147        -0.845578
 H         2.402022         0.368180         1.268501
 H        -0.522687         2.775256         0.391935
 H        -1.402517         2.850997         2.031373
