19
Iteration:   146
 O         1.568356         2.868827         1.771034
 C         0.698460         1.724304         1.851515
 C         0.376426         0.826538         3.199717
 C        -0.354494         0.021874         2.158267
 C        -1.371253         0.927767         1.340623
 C        -0.540613         0.582836         0.010055
 C         0.706226         0.490446         1.015935
 O         1.868808        -0.257009         0.811706
 C        -0.704851         2.318793         1.700075
 H         2.476316         2.622427         1.443103
 H         1.216727         0.290442         3.704926
 H        -0.194511         1.305894         4.019105
 H        -0.809130        -1.041879         2.370272
 H        -2.389635         0.769503         1.416263
 H        -0.603316        -0.465451        -0.288099
 H        -0.627906         1.187711        -0.909069
 H         2.569206         0.417624         0.589425
 H        -0.686427         3.126361         0.896769
 H        -1.086171         2.679726         2.633899
