19
Iteration:  1897
 O         1.763085         2.616773         1.828129
 C         0.640380         1.767277         1.874281
 C         0.339345         1.086672         3.213538
 C        -0.423715         0.080352         2.241557
 C        -1.349053         0.868494         1.297803
 C        -0.550089         0.372047         0.083535
 C         0.701802         0.438409         1.012492
 O         1.940783         0.021510         0.703051
 C        -0.753170         2.312166         1.672802
 H         1.894911         2.901845         0.899664
 H         1.186349         0.481496         3.628871
 H        -0.115902         1.679798         4.012540
 H        -0.754982        -0.935866         2.627149
 H        -2.379391         0.859509         1.194639
 H        -0.895114        -0.719046        -0.162058
 H        -0.644704         0.882519        -0.904075
 H         1.992364        -0.828377         0.375605
 H        -1.087338         3.085492         0.942348
 H        -1.128861         2.673332         2.652574
