19
Iteration:  4957
 O         1.707208         2.678789         1.644284
 C         0.581444         1.848299         1.737605
 C         0.379398         1.222011         3.112506
 C        -0.314783         0.080002         2.348141
 C        -1.365110         0.850037         1.303020
 C        -0.543947         0.284899         0.095038
 C         0.695155         0.422776         1.042750
 O         1.894932        -0.181346         0.991997
 C        -0.821069         2.327864         1.473598
 H         2.200645         2.420140         2.442910
 H         1.344162         0.765692         3.627692
 H        -0.085811         1.866354         3.940484
 H        -0.512905        -1.016778         2.720564
 H        -2.438034         0.659828         1.476201
 H        -0.806036        -0.793349         0.042927
 H        -0.586918         0.759525        -0.865597
 H         2.424835         0.597762         0.866546
 H        -0.730053         2.773129         0.466256
 H        -1.194364         2.967619         2.257402
