19
Iteration:  1248charge 0 multiplicity 1
 O         1.815168         2.636599         1.953951
 C         0.685477         1.852703         1.896437
 C         0.397804         1.008571         3.166106
 C        -0.326742         0.055158         2.188465
 C        -1.340278         0.881010         1.414049
 C        -0.652685         0.300356         0.123114
 C         0.603220         0.499548         0.995291
 O         1.895518        -0.137039         0.627112
 C        -0.782355         2.398084         1.520709
 H         1.617797         3.250594         2.678669
 H         1.293196         0.688575         3.620574
 H        -0.372345         1.440912         3.820303
 H        -0.535380        -0.913801         2.357003
 H        -2.368781         0.805320         1.504650
 H        -0.690841        -0.750433        -0.065792
 H        -0.737814         0.654670        -0.919047
 H         2.017425         0.321940        -0.295894
 H        -0.854523         2.944330         0.554060
 H        -1.158695         3.006325         2.315275
