19
Iteration:   838charge 0 multiplicity 1
 O         1.822545         2.552753         1.904406
 C         0.569327         1.829082         1.907410
 C         0.443744         0.989295         3.141881
 C        -0.306545         0.004427         2.230872
 C        -1.339220         0.877513         1.345740
 C        -0.621906         0.523403         0.118835
 C         0.589737         0.493742         1.007284
 O         1.882995        -0.087666         0.775792
 C        -0.818880         2.333924         1.532893
 H         1.898497         3.115727         1.102051
 H         1.379808         0.482755         3.362606
 H        -0.079165         1.401357         3.974945
 H        -0.467522        -1.030398         2.474207
 H        -2.343438         0.799186         1.476166
 H        -0.781141        -0.482790        -0.202973
 H        -0.540944         1.110889        -0.718099
 H         2.232436         0.231208        -0.114739
 H        -0.857095         2.806139         0.601594
 H        -1.337250         2.894779         2.269886
