19
Iteration:  4642charge 0 multiplicity 1
 O         1.600279         2.916323         1.659355
 C         0.671118         1.889512         1.882229
 C         0.447742         1.192260         3.174693
 C        -0.303995         0.113550         2.263391
 C        -1.375332         0.837806         1.237685
 C        -0.502095         0.221965         0.117171
 C         0.669903         0.437865         1.106561
 O         1.768479        -0.353983         0.994417
 C        -0.731319         2.283478         1.436921
 H         2.363083         2.804258         2.237383
 H         1.383182         0.575596         3.413663
 H         0.044955         1.817980         4.043477
 H        -0.326854        -0.971282         2.599207
 H        -2.441858         0.831731         1.348689
 H        -0.785576        -0.715674        -0.133304
 H        -0.485478         0.712030        -0.841298
 H         2.249731        -0.189223         0.143266
 H        -0.568702         2.832905         0.471518
 H        -1.269406         2.979917         2.152112
