19
Iteration:  3167charge 0 multiplicity 1
 O         1.786925         2.780454         1.853031
 C         0.689337         1.834554         1.828763
 C         0.410544         1.033325         3.116140
 C        -0.276186         0.119000         2.161648
 C        -1.390823         0.895224         1.354050
 C        -0.721259         0.324640         0.089598
 C         0.618267         0.464942         1.081851
 O         1.868211        -0.242282         0.895250
 C        -0.719170         2.292982         1.511401
 H         1.784338         3.396434         1.076621
 H         1.127277         0.378865         3.573513
 H        -0.166492         1.582179         3.831075
 H        -0.351437        -0.999644         2.302645
 H        -2.376362         0.566544         1.533097
 H        -0.790032        -0.756476         0.037489
 H        -0.892970         0.817257        -0.969441
 H         2.387905         0.549823         0.760295
 H        -0.661512         2.735043         0.478261
 H        -1.281930         2.932063         2.207083
