19
Iteration:  2702charge 0 multiplicity 1
 O         1.682983         2.570096         1.603429
 C         0.580791         1.802675         1.862108
 C         0.339190         1.099031         3.181460
 C        -0.283217        -0.013847         2.277907
 C        -1.308765         0.919537         1.338946
 C        -0.564358         0.528921         0.055266
 C         0.599802         0.405471         1.067268
 O         1.982594         0.008596         0.911251
 C        -0.809656         2.287300         1.558452
 H         2.506065         2.099864         1.787614
 H         1.279656         0.716773         3.685651
 H        -0.249375         1.641181         3.933161
 H        -0.409202        -1.056364         2.751095
 H        -2.317188         0.716330         1.363091
 H        -0.739461        -0.463782        -0.462036
 H        -0.570847         1.283463        -0.785412
 H         2.079978        -1.041140         0.993281
 H        -0.926989         2.935541         0.659125
 H        -1.361272         2.959380         2.254236
