19
Iteration:  3873
 O         1.590520         2.826708         1.707155
 C         0.648895         1.917743         1.898787
 C         0.532170         1.037704         3.151172
 C        -0.313671         0.101462         2.210889
 C        -1.341362         0.923770         1.284619
 C        -0.579987         0.403421         0.098026
 C         0.651334         0.342314         1.049660
 O         1.849503        -0.324130         0.993092
 C        -0.780845         2.328953         1.468336
 H         2.516821         2.538858         1.917779
 H         1.486481         0.601365         3.381186
 H        -0.011976         1.302060         4.138894
 H        -0.698007        -0.985052         2.505922
 H        -2.398653         0.794820         1.498442
 H        -0.907443        -0.610845        -0.276825
 H        -0.703768         0.918411        -0.936891
 H         2.505761         0.234589         0.439646
 H        -0.768527         2.940780         0.553549
 H        -1.279946         2.951313         2.156457
