19
Iteration:   166
 O         1.647604         2.749925         1.840046
 C         0.608939         1.826667         1.996699
 C         0.414175         0.869043         3.192405
 C        -0.307707        -0.018758         2.156315
 C        -1.284190         0.945246         1.307760
 C        -0.582409         0.490569         0.051086
 C         0.580390         0.437364         1.084461
 O         1.871998        -0.149152         0.724934
 C        -0.761198         2.352243         1.571645
 H         2.428771         2.149959         1.762530
 H         1.379387         0.549258         3.480128
 H        -0.108032         1.222445         4.054700
 H        -0.433311        -1.073758         2.281286
 H        -2.285700         0.795325         1.409466
 H        -0.989313        -0.356439        -0.355172
 H        -0.452658         1.258196        -0.714075
 H         2.471063         0.665115         0.498154
 H        -0.493397         2.718341         0.581492
 H        -1.269319         3.022258         2.156902
