19
Iteration:  4337
 O         1.630134         2.801362         1.688148
 C         0.669610         1.834067         1.855330
 C         0.516019         1.117518         3.185811
 C        -0.382741         0.176796         2.262864
 C        -1.330293         0.853073         1.308712
 C        -0.561298         0.338352         0.098386
 C         0.695524         0.457482         1.102354
 O         1.828726        -0.359265         0.922693
 C        -0.771101         2.285275         1.407814
 H         1.716459         3.521651         2.338374
 H         1.355106         0.459021         3.448341
 H         0.154406         1.817899         3.902066
 H        -0.733046        -0.830799         2.723910
 H        -2.447654         0.674722         1.426317
 H        -0.753232        -0.761528        -0.129982
 H        -0.484351         0.802639        -0.917620
 H         2.502721         0.272395         0.775959
 H        -0.776161         2.683541         0.398414
 H        -1.321126         2.921048         2.119161
