19
Iteration:  1706charge 0 multiplicity 1
 O         1.779958         2.727101         1.984347
 C         0.710055         1.758441         1.851557
 C         0.323189         1.052432         3.173367
 C        -0.304260        -0.070458         2.263694
 C        -1.337245         0.874547         1.461640
 C        -0.650347         0.440613         0.148722
 C         0.609510         0.479879         1.008462
 O         1.859442         0.020150         0.633950
 C        -0.729282         2.309662         1.400498
 H         2.575689         2.183690         1.836885
 H         1.302050         0.721485         3.671391
 H        -0.310631         1.524451         3.950954
 H        -0.663301        -1.108305         2.298830
 H        -2.532487         0.782814         1.676061
 H        -0.658706        -0.589673        -0.374550
 H        -0.639606         1.037597        -0.813288
 H         1.628495        -0.765366        -0.008220
 H        -0.766615         2.706023         0.386203
 H        -1.036316         2.815196         2.309579
