19
Iteration:   971
 O         1.788801         2.642209         1.961384
 C         0.636604         1.776237         1.985066
 C         0.475978         0.927033         3.266239
 C        -0.353792         0.075727         2.281489
 C        -1.359594         0.952384         1.326480
 C        -0.524547         0.398161         0.074515
 C         0.569065         0.389778         1.060318
 O         1.822294        -0.115353         0.503490
 C        -0.762564         2.358732         1.481631
 H         1.499182         3.576253         1.898207
 H         1.455602         0.342803         3.514581
 H        -0.180594         1.473343         3.946731
 H        -0.653858        -1.047943         2.452080
 H        -2.450926         0.819785         1.378916
 H        -0.841256        -0.608184        -0.253208
 H        -0.620841         1.022969        -0.818687
 H         2.303626         0.777571         0.371974
 H        -0.686748         3.013552         0.613154
 H        -1.185704         3.043685         2.265957
