19
Iteration:  4246charge 0 multiplicity 1
 O         1.761925         2.635380         1.646125
 C         0.613675         1.868173         1.804833
 C         0.323054         1.098323         3.116453
 C        -0.388771         0.089983         2.293668
 C        -1.331960         0.920728         1.352158
 C        -0.565936         0.284979         0.148707
 C         0.626592         0.339317         1.121448
 O         1.966977        -0.166467         0.855511
 C        -0.785958         2.390466         1.472928
 H         1.640071         3.283848         2.350978
 H         1.308580         0.640884         3.339696
 H        -0.080153         1.687029         3.925330
 H        -0.682685        -0.815180         2.689175
 H        -2.403889         0.845085         1.531263
 H        -0.816279        -0.709894        -0.056489
 H        -0.432534         0.640033        -0.894174
 H         2.562881         0.481924         1.156625
 H        -0.879682         2.870008         0.422528
 H        -1.178362         3.052404         2.293858
