19
Iteration:  1650
 O         1.663965         2.743209         1.780109
 C         0.695710         1.790556         1.861091
 C         0.574123         0.912468         3.078844
 C        -0.443043         0.045301         2.219112
 C        -1.348022         0.910758         1.309534
 C        -0.503891         0.599310         0.057097
 C         0.595046         0.444029         1.051663
 O         1.828036        -0.116104         0.896356
 C        -0.763784         2.265583         1.679137
 H         1.723236         3.007487         0.837141
 H         1.340926         0.088470         3.238964
 H         0.284234         1.310435         4.055775
 H        -0.641900        -1.024198         2.304066
 H        -2.394558         0.655377         1.005366
 H        -0.597359        -0.438810        -0.344709
 H        -0.232244         1.412097        -0.648919
 H         1.696362        -1.021241         0.695526
 H        -0.959366         2.996051         0.935444
 H        -1.179778         2.765014         2.545086
