19
Iteration:  1749
 O         1.682074         2.688096         1.671555
 C         0.663049         1.809914         1.863009
 C         0.459595         0.854279         3.196372
 C        -0.461982         0.040256         2.164125
 C        -1.361710         0.982475         1.324716
 C        -0.558727         0.421301         0.123605
 C         0.653463         0.424154         1.085479
 O         1.943796         0.019839         0.750590
 C        -0.755859         2.369855         1.676556
 H         2.364889         2.488173         2.330092
 H         1.467808         0.425728         3.542503
 H         0.060375         1.487895         4.011809
 H        -0.719899        -1.028471         2.308191
 H        -2.547102         0.864139         1.291196
 H        -0.906069        -0.692373        -0.110475
 H        -0.645462         0.935531        -0.931136
 H         1.994693        -0.945890         0.540220
 H        -0.947895         3.113632         0.898377
 H        -1.201162         2.602983         2.666166
