19
Iteration:   897
 O         1.627585         2.762449         1.683565
 C         0.622307         1.794287         1.879402
 C         0.525831         0.881505         3.158943
 C        -0.359749         0.012586         2.195738
 C        -1.341553         0.912819         1.289045
 C        -0.475429         0.616160         0.017129
 C         0.603585         0.461169         1.071501
 O         1.873884        -0.160038         0.762258
 C        -0.853942         2.352319         1.744220
 H         2.485098         2.294698         1.799560
 H         1.426407         0.285718         3.487480
 H         0.186037         1.329087         4.171632
 H        -0.695632        -1.050871         2.457424
 H        -2.477908         0.716919         1.437951
 H        -0.529684        -0.404862        -0.455838
 H        -0.102611         1.493258        -0.661186
 H         1.883803        -1.058762         1.223503
 H        -0.964103         3.121805         0.910778
 H        -1.308238         2.666864         2.727883
