19
Iteration:  4070
 O         1.709960         2.736796         1.723931
 C         0.664617         1.915461         1.876925
 C         0.454810         1.089826         3.226005
 C        -0.352119         0.128465         2.311012
 C        -1.338780         0.858507         1.301091
 C        -0.581415         0.270901         0.111008
 C         0.659198         0.496345         1.013750
 O         1.802900        -0.275981         0.859669
 C        -0.743251         2.293976         1.386799
 H         1.805691         3.328064         2.470679
 H         1.340893         0.568380         3.529983
 H        -0.052648         1.507336         4.117776
 H        -0.584160        -0.969296         2.389835
 H        -2.374223         0.638016         1.391618
 H        -0.764656        -0.796764         0.217836
 H        -0.628058         0.821722        -0.826973
 H         2.541888         0.453532         0.736661
 H        -0.731316         2.798983         0.382548
 H        -1.331631         3.021731         2.044029
