19
Iteration:  1722charge 0 multiplicity 1
 O         1.758078         2.651598         1.897304
 C         0.638390         1.832174         1.927561
 C         0.463729         0.975591         3.201436
 C        -0.354681         0.061609         2.254235
 C        -1.369554         0.867371         1.338287
 C        -0.618172         0.368534         0.079281
 C         0.590376         0.400808         1.062385
 O         1.842989         0.099319         0.639602
 C        -0.711231         2.311436         1.497787
 H         2.435907         2.155452         2.397899
 H         1.371801         0.531440         3.539232
 H        -0.023093         1.527518         4.019454
 H        -0.523762        -0.962572         2.615487
 H        -2.381718         0.731840         1.404795
 H        -0.948828        -0.600399        -0.143079
 H        -0.653200         1.030516        -0.774368
 H         1.879014        -0.676329         0.039286
 H        -0.586776         2.753550         0.455344
 H        -1.267698         3.087509         2.039803
