19
Iteration:  4685charge 0 multiplicity 1
 O         1.584000         2.975270         1.714149
 C         0.617541         1.952833         1.840477
 C         0.428907         1.234021         3.155854
 C        -0.258651         0.121652         2.306605
 C        -1.342576         0.851700         1.309691
 C        -0.527680         0.300783         0.092070
 C         0.584293         0.243650         1.090411
 O         1.857926        -0.419409         0.985829
 C        -0.705592         2.287673         1.421451
 H         2.403964         2.527306         1.962417
 H         1.432056         1.014336         3.556138
 H        -0.259422         1.674721         3.792423
 H        -0.485433        -0.940095         2.620471
 H        -2.364505         0.622342         1.258974
 H        -0.561276        -0.662504        -0.278176
 H        -0.390997         0.956365        -0.801778
 H         2.118433        -0.292024         0.008571
 H        -0.699597         2.805777         0.429973
 H        -1.240898         2.885652         2.177166
