19
Iteration:  1909charge 0 multiplicity 1
 O         1.703902         2.709200         1.772147
 C         0.703340         1.798347         1.901276
 C         0.382968         0.930420         3.149868
 C        -0.394430         0.106503         2.222983
 C        -1.352409         0.976637         1.339374
 C        -0.512394         0.416398         0.074831
 C         0.587087         0.407487         1.055399
 O         1.984258        -0.047497         0.782844
 C        -0.819174         2.309131         1.641602
 H         1.760229         2.855608         0.814468
 H         1.256012         0.326151         3.564306
 H        -0.166897         1.429440         3.913936
 H        -0.644308        -0.999837         2.406285
 H        -2.392155         0.674049         1.510693
 H        -0.781248        -0.681970        -0.058643
 H        -0.467147         1.011645        -0.840803
 H         1.865599        -0.931000         0.298367
 H        -0.794989         3.049961         0.800113
 H        -1.193170         2.742479         2.607775
