19
Iteration:  1079
 O         1.757718         2.755430         1.984566
 C         0.672314         1.857794         1.930246
 C         0.351281         1.011424         3.185074
 C        -0.260543         0.051646         2.129797
 C        -1.317230         0.868477         1.407469
 C        -0.576270         0.445361         0.068191
 C         0.658472         0.438206         1.013576
 O         1.796957        -0.318544         0.559042
 C        -0.760458         2.346064         1.607583
 H         1.664745         3.464462         1.319717
 H         1.148526         0.693650         3.880103
 H        -0.271393         1.499522         3.859075
 H        -0.593528        -1.054557         2.434872
 H        -2.421859         0.701881         1.487397
 H        -1.039995        -0.517693        -0.184835
 H        -0.687642         1.135297        -0.747978
 H         2.587352         0.312148         0.615441
 H        -0.608934         2.917082         0.695111
 H        -1.272930         3.010973         2.355435
