19
Iteration:  2338
 O         1.768856         2.723233         1.840755
 C         0.680564         1.822682         1.911368
 C         0.408365         1.019972         3.168420
 C        -0.290410         0.095004         2.237633
 C        -1.331463         0.900507         1.305495
 C        -0.602498         0.330319         0.103535
 C         0.634565         0.449106         1.080630
 O         1.823639        -0.188132         0.824224
 C        -0.783623         2.317698         1.447455
 H         1.566926         3.163659         0.985465
 H         1.257347         0.695964         3.729969
 H        -0.173820         1.543156         3.966494
 H        -0.470567        -0.973866         2.270880
 H        -2.434412         0.740945         1.414121
 H        -0.780207        -0.713106        -0.061027
 H        -0.845899         0.854321        -0.749452
 H         2.486672         0.501605         0.686726
 H        -0.650738         2.834620         0.478062
 H        -1.430883         2.953631         2.107979
