19
Iteration:  2610charge 0 multiplicity 1
 O         1.661244         2.890810         1.828789
 C         0.615525         1.843545         1.847365
 C         0.460057         1.117181         3.212392
 C        -0.244625         0.113080         2.304545
 C        -1.280393         0.765057         1.323291
 C        -0.486021         0.407868         0.067037
 C         0.583972         0.310845         1.082899
 O         1.764195        -0.274197         0.821211
 C        -0.792095         2.309717         1.409413
 H         2.423983         2.294097         2.015929
 H         1.404608         0.729966         3.532321
 H        -0.048585         1.644382         4.044523
 H        -0.592813        -0.834573         2.691937
 H        -2.350474         0.800483         1.430805
 H        -0.693557        -0.540921        -0.465553
 H        -0.631380         1.215325        -0.719388
 H         2.259296         0.074680         0.059218
 H        -0.943783         2.787916         0.460195
 H        -1.330336         2.945939         2.107485
