19
Iteration:  1133
 O         1.746730         2.697559         1.917884
 C         0.667093         1.801459         1.917576
 C         0.468506         0.867082         3.205381
 C        -0.326006         0.009134         2.193359
 C        -1.358011         0.958358         1.389834
 C        -0.622152         0.421056         0.064684
 C         0.583976         0.402421         1.036317
 O         1.874218        -0.098340         0.743162
 C        -0.737796         2.367811         1.493156
 H         1.572669         3.254305         1.139034
 H         1.487576         0.394266         3.179202
 H         0.021767         1.179546         4.151068
 H        -0.797405        -1.014777         2.593357
 H        -2.489322         1.036582         1.398887
 H        -0.985352        -0.573523        -0.287353
 H        -0.597695         1.052473        -0.824447
 H         2.348359         0.624445         0.263073
 H        -0.766949         2.856113         0.503418
 H        -1.245536         3.060282         2.229998
