19
Iteration:  3538
 O         1.750079         2.834705         1.675694
 C         0.681987         1.874643         1.853122
 C         0.433243         0.960033         3.157071
 C        -0.285880         0.099047         2.195198
 C        -1.438537         0.900379         1.278171
 C        -0.635250         0.431802         0.038978
 C         0.629014         0.395496         1.011821
 O         1.839661        -0.297729         1.055029
 C        -0.703311         2.277719         1.647379
 H         1.698499         3.443540         0.890432
 H         1.404355         0.596406         3.382979
 H        -0.076019         1.373280         4.074323
 H        -0.722746        -0.920619         2.177469
 H        -2.448631         0.673698         1.371619
 H        -0.811440        -0.616009        -0.268049
 H        -0.485733         1.214150        -0.830466
 H         2.428176         0.229381         0.393647
 H        -0.903999         2.988551         0.858088
 H        -1.106382         2.543147         2.603046
