19
Iteration:  2020charge 0 multiplicity 1
 O         1.817151         2.612722         1.974572
 C         0.631962         1.872031         1.927682
 C         0.377973         1.064712         3.117932
 C        -0.333348        -0.006180         2.254528
 C        -1.368370         0.880070         1.384983
 C        -0.611525         0.350216         0.121059
 C         0.593240         0.400242         1.038002
 O         1.851243        -0.009847         0.610013
 C        -0.705018         2.255036         1.429517
 H         1.813307         3.379497         1.363051
 H         1.304948         0.574828         3.504441
 H        -0.124480         1.507704         3.958647
 H        -0.824154        -0.864885         2.758895
 H        -2.539057         0.825039         1.478654
 H        -0.757308        -0.681790        -0.279728
 H        -0.613685         1.207439        -0.582123
 H         2.525612         0.156639         1.273440
 H        -0.694743         2.706150         0.441200
 H        -1.214711         3.134466         1.960489
