19
Iteration:  4798
 O         1.721330         2.663941         1.621877
 C         0.644096         1.868921         1.891834
 C         0.337477         1.221992         3.198958
 C        -0.329193         0.129909         2.330355
 C        -1.342805         0.867813         1.255560
 C        -0.511053         0.218401         0.114898
 C         0.640427         0.407350         1.136985
 O         1.880772        -0.214452         0.819729
 C        -0.787537         2.297101         1.459160
 H         1.652500         3.575705         1.949390
 H         1.282817         0.879971         3.582589
 H        -0.267609         1.857273         3.921280
 H        -0.704208        -0.880215         2.644078
 H        -2.449907         0.756096         1.510301
 H        -0.566627        -0.840133         0.051267
 H        -0.402685         0.773948        -0.800435
 H         2.652444         0.271388         1.088490
 H        -0.764592         2.830442         0.504239
 H        -1.296536         2.827394         2.336298
