19
Iteration:  2049charge 0 multiplicity 1
 O         1.767853         2.569541         1.868037
 C         0.635660         1.817221         1.893018
 C         0.377854         1.026675         3.189664
 C        -0.286203         0.055481         2.180021
 C        -1.385650         0.980374         1.227445
 C        -0.589995         0.311389         0.120120
 C         0.640297         0.502674         1.042603
 O         1.898370        -0.085262         0.771773
 C        -0.795025         2.354506         1.611694
 H         1.860136         3.154108         1.098746
 H         1.269327         0.400584         3.511360
 H        -0.226244         1.547181         3.950125
 H        -0.695665        -0.964182         2.464282
 H        -2.400985         0.771288         1.335974
 H        -0.734448        -0.839738        -0.004000
 H        -0.658370         0.742168        -0.914230
 H         2.396699         0.462537         0.228606
 H        -0.887959         3.172625         0.857281
 H        -1.155577         2.614201         2.581076
