19
Iteration:  2418charge 0 multiplicity 1
 O         1.692861         2.779925         1.728976
 C         0.660857         1.873917         1.859564
 C         0.335941         0.998079         3.218681
 C        -0.254788         0.039133         2.186545
 C        -1.353958         0.904158         1.324694
 C        -0.557442         0.424703         0.134708
 C         0.691953         0.474887         1.032304
 O         1.833015        -0.301504         0.893547
 C        -0.726200         2.305153         1.536664
 H         1.602568         3.307980         0.904202
 H         1.253267         0.573615         3.657803
 H        -0.321916         1.556124         3.870403
 H        -0.742994        -1.019962         2.429070
 H        -2.419671         0.828146         1.357476
 H        -0.721519        -0.642707         0.059072
 H        -0.546300         0.914656        -0.842517
 H         2.455364         0.271843         0.501853
 H        -0.840402         2.930375         0.663782
 H        -1.100085         2.770778         2.441751
