19
Iteration:  2391
 O         1.750748         2.523645         1.605870
 C         0.593105         1.825040         1.864494
 C         0.417110         1.029431         3.269978
 C        -0.345358         0.027414         2.337290
 C        -1.388635         0.859985         1.286835
 C        -0.497810         0.545528         0.016471
 C         0.599562         0.390177         1.153570
 O         1.905715        -0.063906         0.909246
 C        -0.796823         2.293947         1.530170
 H         1.754120         3.037881         0.770854
 H         1.322139         0.434645         3.471019
 H         0.044901         1.612278         4.158406
 H        -0.632629        -0.929916         2.603978
 H        -2.516343         0.745563         1.297253
 H        -0.591058        -0.442302        -0.475706
 H        -0.446754         1.317454        -0.750883
 H         2.252080         0.803838         0.883539
 H        -0.736360         2.846088         0.528738
 H        -1.340167         2.939879         2.286740
