19
Iteration:  3054
 O         1.833202         2.557622         1.842959
 C         0.667875         1.767695         1.831893
 C         0.481112         1.100284         3.149789
 C        -0.315295         0.182993         2.259508
 C        -1.349895         0.883616         1.304383
 C        -0.645347         0.356252         0.137342
 C         0.535797         0.432208         1.035712
 O         1.864689        -0.083611         0.873237
 C        -0.850884         2.262383         1.448240
 H         1.674174         3.271783         1.182087
 H         1.376577         0.466704         3.219452
 H         0.261543         1.671157         4.072567
 H        -0.629866        -0.717973         2.707231
 H        -2.394000         0.467043         1.147705
 H        -0.882027        -0.700466        -0.236979
 H        -0.465965         1.109203        -0.703489
 H         2.449299         0.730631         0.749236
 H        -1.105290         2.892516         0.533297
 H        -1.143484         2.782531         2.389797
