19
Iteration:  4293charge 0 multiplicity 1
 O         1.734238         2.522665         1.413619
 C         0.560479         1.885657         1.904735
 C         0.342329         1.082495         3.222110
 C        -0.330473         0.091320         2.242210
 C        -1.333965         0.917818         1.373023
 C        -0.432908         0.431714         0.135089
 C         0.652471         0.467445         1.081068
 O         1.923650        -0.159600         1.016670
 C        -0.888549         2.328303         1.515198
 H         2.320061         2.905344         2.102762
 H         1.330230         0.673071         3.506695
 H        -0.340951         1.370838         3.977803
 H        -0.661805        -1.003926         2.409742
 H        -2.458465         0.635770         1.405618
 H        -0.697239        -0.569833        -0.244141
 H        -0.602462         0.866260        -0.834388
 H         2.555363         0.480612         0.812958
 H        -0.823698         2.821228         0.544506
 H        -1.393473         2.941397         2.264592
