19
Iteration:  1269
 O         1.826555         2.574331         1.910106
 C         0.584899         1.876385         1.894642
 C         0.412404         1.070541         3.209321
 C        -0.254365         0.051688         2.331767
 C        -1.326969         0.846699         1.288239
 C        -0.548498         0.467843         0.105733
 C         0.595013         0.472425         1.039076
 O         1.827670        -0.106840         0.616326
 C        -0.851815         2.253319         1.501310
 H         1.975110         2.970099         2.792773
 H         1.389216         0.839147         3.432167
 H        -0.021646         1.620338         4.063978
 H        -0.502175        -0.916189         2.626219
 H        -2.319468         0.705079         1.448113
 H        -0.927595        -0.423848        -0.358299
 H        -0.371748         1.091983        -0.802292
 H         1.758964        -0.075726        -0.295801
 H        -0.752379         2.817153         0.538350
 H        -1.434539         2.811445         2.206282
