19
Iteration:  1969charge 0 multiplicity 1
 O         1.712200         2.850423         1.863491
 C         0.667041         1.870692         1.869623
 C         0.432256         1.014661         3.104971
 C        -0.338981         0.044782         2.214401
 C        -1.316577         0.941058         1.287631
 C        -0.539412         0.467829         0.031395
 C         0.626317         0.378455         1.035444
 O         1.906214        -0.274442         0.773623
 C        -0.846627         2.323785         1.683702
 H         1.872120         2.997663         0.909681
 H         1.334453         0.563857         3.404982
 H        -0.050854         1.422615         4.052332
 H        -0.419328        -0.988331         2.373776
 H        -2.375616         0.591439         1.148851
 H        -0.806668        -0.548163        -0.140218
 H        -0.541647         1.045580        -0.888121
 H         1.884093        -1.193649         0.867140
 H        -1.161318         3.243670         1.178820
 H        -1.247087         2.554561         2.690406
