19
Iteration:  3099
 O         1.700407         2.675770         1.609376
 C         0.699922         1.797278         1.877952
 C         0.331222         0.983407         3.257965
 C        -0.372864         0.113552         2.333417
 C        -1.303766         0.896493         1.293651
 C        -0.524125         0.452229         0.072836
 C         0.644786         0.416764         1.094967
 O         1.876514        -0.143757         0.815187
 C        -0.756055         2.278138         1.552960
 H         1.673714         3.054289         0.705967
 H         1.115829         0.439270         3.774774
 H        -0.296206         1.559441         3.981156
 H        -0.566273        -0.918769         2.586153
 H        -2.468338         0.892894         1.475901
 H        -0.921306        -0.631378        -0.012613
 H        -0.715357         0.973684        -0.980509
 H         2.686960         0.409659         1.173940
 H        -0.666233         3.062445         0.706073
 H        -1.114271         2.777743         2.503282
