19
Iteration:  4808
 O         1.721809         2.730904         1.683340
 C         0.644646         1.799031         1.766460
 C         0.323570         1.194584         3.198909
 C        -0.372346         0.119482         2.411462
 C        -1.305958         0.846010         1.355950
 C        -0.483161         0.305409         0.148242
 C         0.652000         0.426126         1.084997
 O         1.890436        -0.271444         0.793648
 C        -0.742758         2.279745         1.410875
 H         1.293395         3.605245         1.746215
 H         1.142697         0.802292         3.792768
 H        -0.256951         1.901914         3.835619
 H        -0.630112        -0.980688         2.791484
 H        -2.479082         0.797117         1.252893
 H        -0.646867        -0.722283        -0.055851
 H        -0.560061         0.649369        -0.893378
 H         2.463630         0.439586         1.172992
 H        -0.799471         2.943554         0.545276
 H        -1.322117         2.947272         2.167201
