19
Iteration:   956charge 0 multiplicity 1
 O         1.762982         2.726751         1.989081
 C         0.691298         1.859506         1.936581
 C         0.396613         0.970598         3.182631
 C        -0.372297         0.019382         2.221119
 C        -1.307961         0.954698         1.298343
 C        -0.614778         0.344283         0.112423
 C         0.643192         0.399332         0.998903
 O         1.776831        -0.153123         0.484294
 C        -0.695017         2.335017         1.590350
 H         1.479996         3.496108         2.511234
 H         1.347521         0.525869         3.403118
 H        -0.013122         1.386378         4.069543
 H        -0.783171        -0.873548         2.547924
 H        -2.348501         0.894631         1.459043
 H        -0.827445        -0.707978        -0.019619
 H        -0.382963         0.745411        -0.849015
 H         2.532551         0.319761         0.711412
 H        -0.678291         2.907375         0.669198
 H        -1.270356         2.920639         2.345213
