19
Iteration:  4983
 O         1.660417         2.858231         1.685526
 C         0.651572         1.881977         1.794446
 C         0.405585         1.135798         3.229695
 C        -0.317929         0.097198         2.332165
 C        -1.338622         0.870461         1.309728
 C        -0.577559         0.258174         0.116687
 C         0.703338         0.398652         1.089193
 O         1.850591        -0.276324         0.978115
 C        -0.821556         2.282221         1.342547
 H         2.530650         2.449138         1.851154
 H         1.296654         0.662084         3.497014
 H        -0.068622         1.623501         4.028973
 H        -0.470980        -0.911309         2.466070
 H        -2.411913         0.716235         1.461741
 H        -0.991133        -0.656464        -0.253951
 H        -0.395280         1.032734        -0.764398
 H         2.484453         0.396504         0.703436
 H        -0.784801         2.631028         0.356270
 H        -1.243985         3.043303         1.981685
