19
Iteration:  4553charge 0 multiplicity 1
 O         1.754284         2.712403         1.552383
 C         0.587599         1.864814         1.841855
 C         0.441497         1.107580         3.178462
 C        -0.395651         0.101013         2.338560
 C        -1.374835         0.869375         1.321111
 C        -0.518714         0.299788         0.114825
 C         0.646207         0.470475         1.123120
 O         1.877048        -0.180112         0.955851
 C        -0.816182         2.285704         1.414769
 H         2.168370         2.750054         2.427628
 H         1.437325         0.639895         3.515057
 H         0.123830         1.680328         4.099817
 H        -0.870970        -0.842681         2.657062
 H        -2.452978         0.689053         1.282489
 H        -0.753571        -0.743775        -0.066491
 H        -0.629385         0.604923        -0.930870
 H         2.666169         0.327117         0.986230
 H        -0.686925         2.756771         0.367078
 H        -1.359192         3.027647         2.047881
