19
Iteration:  3580
 O         1.782785         2.617534         1.747459
 C         0.593743         1.883140         1.882635
 C         0.453460         1.073698         3.222468
 C        -0.383433         0.033807         2.315581
 C        -1.332234         0.871575         1.305769
 C        -0.584148         0.404659         0.082842
 C         0.593543         0.407233         1.181179
 O         1.864622        -0.160039         0.731170
 C        -0.758747         2.302987         1.398239
 H         1.670270         3.586465         1.679808
 H         1.306132         0.585194         3.489881
 H         0.068182         1.364655         4.189873
 H        -0.526336        -0.986108         2.759675
 H        -2.371794         0.962790         1.351136
 H        -0.913377        -0.597880        -0.209030
 H        -0.448057         1.211297        -0.713983
 H         2.476930         0.474301         0.983831
 H        -0.809694         2.867436         0.413641
 H        -1.210866         2.866446         2.243520
