19
Iteration:  4533
 O         1.653391         2.757209         1.684500
 C         0.606510         1.848489         1.772229
 C         0.426148         1.178612         3.115770
 C        -0.314154         0.176247         2.312434
 C        -1.347605         0.885959         1.340443
 C        -0.584490         0.282034         0.154564
 C         0.668151         0.301145         1.107091
 O         1.913769        -0.319970         0.894184
 C        -0.751298         2.360954         1.382351
 H         1.877927         3.205257         2.533004
 H         1.284989         0.744784         3.663082
 H        -0.154500         1.653078         3.929879
 H        -0.398543        -0.888714         2.591335
 H        -2.349378         0.728940         1.510180
 H        -0.871434        -0.656995        -0.132172
 H        -0.551412         0.858032        -0.817219
 H         2.467168         0.496588         1.127630
 H        -0.988036         2.898420         0.462576
 H        -1.244374         2.945346         2.160709
