19
Iteration:  4545
 O         1.690300         2.714762         1.611770
 C         0.628027         1.850330         1.816171
 C         0.427510         1.133899         3.203661
 C        -0.353418         0.139035         2.309738
 C        -1.362534         0.908710         1.349447
 C        -0.553855         0.268104         0.135639
 C         0.623442         0.440781         1.072140
 O         1.943763        -0.254730         0.929681
 C        -0.849433         2.308064         1.367269
 H         1.996875         2.884924         2.512182
 H         1.393424         0.677615         3.318631
 H         0.068163         1.724295         4.053827
 H        -0.803017        -0.794007         2.714760
 H        -2.366399         0.790504         1.413498
 H        -0.757097        -0.722546        -0.045335
 H        -0.561103         0.845287        -0.825130
 H         2.705264         0.267435         1.086774
 H        -0.741350         2.790832         0.428036
 H        -1.214107         2.974114         2.138386
