19
Iteration:   362
 O         1.813520         2.613464         1.890789
 C         0.655188         1.846232         1.959481
 C         0.326790         0.984830         3.190750
 C        -0.379034         0.021852         2.154977
 C        -1.309666         0.931762         1.304921
 C        -0.582615         0.369909         0.100905
 C         0.623181         0.498340         1.029855
 O         1.864746         0.083494         0.515190
 C        -0.804553         2.288108         1.704243
 H         2.474782         1.896924         1.870134
 H         1.225464         0.453303         3.613194
 H        -0.284003         1.439007         3.976211
 H        -0.539858        -0.961677         2.259272
 H        -2.417659         0.739224         1.387234
 H        -0.717066        -0.726238         0.141078
 H        -0.560248         0.962795        -0.880094
 H         2.432078        -0.548498         1.096814
 H        -0.731653         2.956589         0.791508
 H        -1.500010         2.751833         2.413899
