19
Iteration:  4719charge 0 multiplicity 1
 O         1.645887         2.787497         1.548437
 C         0.609889         1.898092         1.836250
 C         0.354375         1.141419         3.153310
 C        -0.348548         0.136509         2.281573
 C        -1.375900         0.830232         1.320662
 C        -0.425201         0.291000         0.168307
 C         0.637774         0.458631         1.135357
 O         1.890576        -0.285839         0.992274
 C        -0.781353         2.303622         1.454389
 H         2.460423         2.347827         1.852979
 H         1.279965         0.716330         3.605699
 H        -0.093478         1.563833         4.043875
 H        -0.584277        -1.017081         2.449595
 H        -2.505884         0.763039         1.277334
 H        -0.592113        -0.765340         0.104355
 H        -0.469086         0.805384        -0.817832
 H         2.479642         0.303304         0.397597
 H        -0.773429         2.928719         0.535798
 H        -1.258087         3.005588         2.216619
