19
Iteration:  4233charge 0 multiplicity 1
 O         1.706698         2.695585         1.687241
 C         0.611789         1.817317         1.866837
 C         0.391714         1.152798         3.227195
 C        -0.363528         0.152274         2.294525
 C        -1.372261         0.889610         1.314640
 C        -0.546638         0.263728         0.145897
 C         0.704464         0.470702         1.051930
 O         1.892724        -0.282599         0.797806
 C        -0.758756         2.330838         1.397615
 H         1.866543         3.420741         2.344779
 H         1.224742         0.702331         3.759799
 H        -0.237652         1.667219         4.045260
 H        -0.583477        -0.897646         2.458698
 H        -2.402187         0.675417         1.315384
 H        -0.805466        -0.821867         0.160702
 H        -0.768552         0.872670        -0.761223
 H         2.713724         0.267790         1.139555
 H        -0.746704         3.014169         0.474554
 H        -1.265997         2.946648         2.222317
