19
Iteration:  1386charge 0 multiplicity 1
 O         1.792508         2.658939         1.887526
 C         0.640792         1.822932         1.927027
 C         0.233807         1.027382         3.212067
 C        -0.306299        -0.013052         2.220939
 C        -1.279811         0.931279         1.401638
 C        -0.612014         0.387327         0.100420
 C         0.681163         0.426756         1.026546
 O         1.865529        -0.096298         0.554467
 C        -0.674762         2.389118         1.535380
 H         1.491958         3.583193         1.726858
 H         1.021908         0.681809         3.875100
 H        -0.438716         1.702048         3.770603
 H        -0.708921        -1.022876         2.577776
 H        -2.283845         0.889232         1.632295
 H        -0.683684        -0.632439        -0.102341
 H        -0.662148         0.779039        -0.830394
 H         2.115194        -1.029420         0.748311
 H        -0.781625         2.916327         0.583091
 H        -1.197327         2.862476         2.367904
