19
Iteration:  4795charge 0 multiplicity 1
 O         1.739169         2.652283         1.601691
 C         0.612246         1.890457         1.906283
 C         0.346946         1.221165         3.207618
 C        -0.325091         0.146921         2.291412
 C        -1.349923         0.872524         1.248478
 C        -0.511453         0.200360         0.110883
 C         0.661056         0.395235         1.158813
 O         1.867316        -0.195746         0.831055
 C        -0.795155         2.300824         1.461269
 H         1.688269         3.539847         2.024146
 H         1.317055         0.868616         3.647272
 H        -0.199794         1.736340         3.949522
 H        -0.703485        -0.942245         2.668689
 H        -2.454044         0.684311         1.486496
 H        -0.658418        -0.889724         0.088615
 H        -0.382187         0.864044        -0.803870
 H         2.682186         0.256852         1.076865
 H        -0.794376         2.814751         0.498211
 H        -1.276810         2.816563         2.327875
