19
Iteration:   808
 O         1.816898         2.736923         2.041886
 C         0.672809         1.853105         1.906422
 C         0.416666         1.055784         3.161023
 C        -0.325350         0.059754         2.248774
 C        -1.319645         0.892286         1.325451
 C        -0.620188         0.366129         0.094944
 C         0.568718         0.397990         0.943721
 O         1.784865        -0.215443         0.543243
 C        -0.742183         2.304198         1.580194
 H         1.651897         3.531859         1.504710
 H         1.285874         0.492698         3.655317
 H        -0.145732         1.631018         3.937261
 H        -0.549818        -0.968003         2.471033
 H        -2.378174         0.831089         1.491719
 H        -0.843515        -0.710198        -0.085180
 H        -0.366109         0.943847        -0.888698
 H         2.515229         0.457715         0.834616
 H        -0.819161         2.897452         0.660082
 H        -1.202534         2.781660         2.444430
