19
Iteration:  1109
 O         1.805517         2.652517         2.167156
 C         0.653021         1.891986         1.888694
 C         0.508756         1.030698         3.108674
 C        -0.292424         0.072758         2.201924
 C        -1.340215         0.870460         1.332393
 C        -0.665646         0.274796         0.083285
 C         0.600559         0.469507         0.999586
 O         1.777369        -0.150050         0.627142
 C        -0.771853         2.329068         1.478293
 H         1.975182         3.420566         1.590357
 H         1.499242         0.624070         3.272736
 H         0.028574         1.580873         3.996840
 H        -0.613495        -0.883392         2.521868
 H        -2.386889         0.826717         1.380651
 H        -1.032254        -0.728626        -0.130714
 H        -0.907764         0.870652        -0.830770
 H         2.289075         0.446419         0.163901
 H        -0.603056         2.945537         0.555860
 H        -1.294019         2.968658         2.182422
