19
Iteration:  3658charge 0 multiplicity 1
 O         1.765419         2.631891         1.634795
 C         0.637002         1.769018         1.868621
 C         0.433529         1.035705         3.155575
 C        -0.400746         0.125210         2.266210
 C        -1.336120         0.839407         1.379963
 C        -0.585656         0.421242         0.080393
 C         0.570449         0.528640         1.075038
 O         1.862086        -0.157042         0.945164
 C        -0.742348         2.238865         1.482975
 H         1.588746         3.413055         2.178026
 H         1.339368         0.470263         3.089181
 H         0.307515         1.592390         4.115993
 H        -0.531226        -0.993051         2.472939
 H        -2.401727         0.823933         1.417190
 H        -0.742317        -0.536752        -0.485077
 H        -0.571115         1.205643        -0.810521
 H         2.416159         0.693950         0.764152
 H        -0.513851         2.796710         0.496053
 H        -1.261865         2.819530         2.294516
