19
Iteration:  4273charge 0 multiplicity 1
 O         1.809113         2.495275         1.490160
 C         0.678593         1.828952         1.881375
 C         0.411951         1.090618         3.238723
 C        -0.374570         0.097737         2.313317
 C        -1.390401         0.818501         1.247028
 C        -0.598677         0.380871         0.060819
 C         0.564886         0.456282         1.143281
 O         1.883496         0.005408         1.020779
 C        -0.801099         2.287901         1.446945
 H         2.047768         3.028763         2.253785
 H         1.303791         0.563139         3.561075
 H         0.064665         1.803776         4.008851
 H        -0.530264        -1.014004         2.633832
 H        -2.487107         0.657598         1.373695
 H        -0.676755        -0.660247        -0.423550
 H        -0.551904         0.994103        -0.824438
 H         2.483030         0.731126         0.933171
 H        -0.827908         2.871330         0.584542
 H        -1.211116         2.866928         2.256408
