19
Iteration:  4692
 O         1.602542         2.944104         1.694683
 C         0.669610         1.923672         1.845103
 C         0.445985         1.204194         3.200367
 C        -0.261277         0.130607         2.335490
 C        -1.329652         0.816830         1.291547
 C        -0.479246         0.310777         0.074503
 C         0.601251         0.370664         1.112032
 O         1.815724        -0.401748         0.978588
 C        -0.769998         2.241231         1.383012
 H         2.478426         2.538204         1.854022
 H         1.348375         0.919067         3.732169
 H        -0.244812         1.728884         3.949134
 H        -0.634306        -0.779280         2.656946
 H        -2.429063         0.717773         1.265281
 H        -0.637791        -0.831021        -0.345647
 H        -0.581085         0.837164        -0.927150
 H         2.148369        -0.167498         0.036503
 H        -0.789508         2.918475         0.534782
 H        -1.289135         2.857023         2.090314
