19
Iteration:  4131
 O         1.768751         2.500323         1.500772
 C         0.598267         1.826105         1.851830
 C         0.409012         1.077318         3.259351
 C        -0.375776         0.080359         2.277244
 C        -1.416617         0.850934         1.290112
 C        -0.556372         0.403158         0.114811
 C         0.579779         0.422720         1.094350
 O         2.008196        -0.038309         1.000233
 C        -0.829502         2.360789         1.477792
 H         2.259553         2.806849         2.263558
 H         1.349804         0.609676         3.620579
 H        -0.073648         1.646498         4.110937
 H        -0.673993        -0.989896         2.532757
 H        -2.503708         0.577995         1.405122
 H        -0.807883        -0.558814        -0.419801
 H        -0.606626         1.057834        -0.768681
 H         2.507477         0.706012         0.683598
 H        -0.783599         2.877330         0.536114
 H        -1.416059         3.001676         2.145726
