19
Iteration:   149
 O         1.561142         2.838027         1.776571
 C         0.677085         1.732326         1.892882
 C         0.374804         0.833528         3.203859
 C        -0.334525         0.020376         2.155321
 C        -1.354596         0.940416         1.364083
 C        -0.534071         0.583385         0.034980
 C         0.706767         0.469163         0.987342
 O         1.863040        -0.230158         0.802200
 C        -0.682208         2.319141         1.646201
 H         2.439544         2.643640         1.420396
 H         1.220575         0.228609         3.718560
 H        -0.220859         1.299615         4.055457
 H        -0.806358        -1.047761         2.306039
 H        -2.517980         0.803999         1.399238
 H        -0.687266        -0.557206        -0.261910
 H        -0.596239         1.216073        -0.878974
 H         2.605702         0.433194         0.599974
 H        -0.757370         3.096245         0.836851
 H        -1.125131         2.769772         2.642938
