19
Iteration:  1746
 O         1.686147         2.666477         1.696060
 C         0.645196         1.806763         1.883942
 C         0.464608         0.868528         3.212238
 C        -0.449289         0.036058         2.200458
 C        -1.361551         0.980092         1.317625
 C        -0.564757         0.390115         0.102167
 C         0.627675         0.443494         1.062000
 O         1.959751         0.024471         0.728313
 C        -0.752842         2.379080         1.642320
 H         2.411286         2.550082         2.343632
 H         1.456632         0.414706         3.489344
 H         0.091933         1.416519         4.071649
 H        -0.839874        -1.021802         2.358109
 H        -2.442822         0.943795         1.342447
 H        -0.866461        -0.672295        -0.036331
 H        -0.633876         0.908893        -0.924205
 H         1.991929        -0.865284         0.492820
 H        -0.998312         3.164318         0.905519
 H        -1.225133         2.659484         2.624844
