19
Iteration:   877charge 0 multiplicity 1
 O         1.632032         2.741066         1.659863
 C         0.687481         1.781737         1.949160
 C         0.450130         0.864872         3.188438
 C        -0.426571         0.042180         2.181920
 C        -1.338498         0.958075         1.275476
 C        -0.516134         0.582766         0.023416
 C         0.638754         0.419097         1.016903
 O         1.915727        -0.066095         0.871626
 C        -0.734139         2.275063         1.763566
 H         2.007075         2.418477         0.828861
 H         1.385666         0.398921         3.521083
 H        -0.034381         1.256530         4.145836
 H        -0.576382        -1.045783         2.374372
 H        -2.540367         0.852810         1.128380
 H        -0.993109        -0.426731        -0.223568
 H        -0.473030         1.343800        -0.889839
 H         1.926602        -0.942719         0.543720
 H        -0.722990         3.191982         1.060184
 H        -1.287023         2.470456         2.739109
