19
Iteration:  4376
 O         1.752623         2.776845         1.705886
 C         0.656805         1.912073         1.864631
 C         0.382900         1.202410         3.154430
 C        -0.320205         0.117342         2.309351
 C        -1.292857         0.847653         1.339724
 C        -0.578491         0.254712         0.081332
 C         0.626045         0.345064         1.056825
 O         1.865203        -0.293370         0.874244
 C        -0.790008         2.303707         1.418254
 H         1.556071         3.461632         2.378667
 H         1.116907         0.677346         3.765983
 H        -0.320205         1.741571         3.848654
 H        -0.522977        -0.871112         2.564945
 H        -2.362642         0.688757         1.572325
 H        -0.772744        -0.778809         0.087993
 H        -0.754681         0.823680        -0.817632
 H         2.580819         0.321690         0.561653
 H        -0.718012         2.826109         0.430691
 H        -1.307101         2.961489         2.140117
