19
Iteration:  1271
 O         1.824808         2.581488         1.885674
 C         0.598205         1.880377         1.907357
 C         0.423718         1.063162         3.211682
 C        -0.271326         0.039266         2.334444
 C        -1.312849         0.846164         1.295430
 C        -0.546748         0.484448         0.102303
 C         0.576905         0.476497         1.051111
 O         1.837532        -0.111418         0.625071
 C        -0.863613         2.245284         1.505774
 H         1.960510         2.924232         2.796070
 H         1.457574         0.854685         3.427208
 H        -0.123607         1.627354         4.028235
 H        -0.494042        -0.906171         2.610904
 H        -2.401846         0.725704         1.406816
 H        -0.890021        -0.389765        -0.451870
 H        -0.292510         1.086467        -0.804643
 H         1.701605        -0.083642        -0.323683
 H        -0.742662         2.787299         0.547335
 H        -1.434087         2.816511         2.211148
