19
Iteration:  3899
 O         1.689436         2.803908         1.768033
 C         0.684402         1.807365         1.764562
 C         0.350437         1.180267         3.129553
 C        -0.376093         0.067996         2.347658
 C        -1.333756         0.885819         1.398088
 C        -0.525968         0.325778         0.090281
 C         0.624807         0.330290         1.041414
 O         1.833220        -0.221727         0.804052
 C        -0.699521         2.252933         1.503566
 H         2.213470         2.675828         2.606312
 H         1.265618         0.840960         3.711014
 H        -0.287475         1.713385         3.833513
 H        -0.488063        -0.943409         2.645070
 H        -2.448343         0.882929         1.423224
 H        -0.895995        -0.566869        -0.374923
 H        -0.400318         0.968254        -0.735004
 H         2.441132         0.432373         0.255149
 H        -0.847522         2.775732         0.520590
 H        -1.024445         3.085378         2.173512
