19
Iteration:  2600
 O         1.647365         2.770884         1.744757
 C         0.619332         1.879678         1.884546
 C         0.417514         1.148975         3.207764
 C        -0.280975         0.059555         2.327068
 C        -1.342224         0.883764         1.335930
 C        -0.487618         0.355486         0.013982
 C         0.640890         0.439828         1.091039
 O         1.813856        -0.284384         0.791950
 C        -0.816416         2.287228         1.467072
 H         2.449910         2.554946         2.249989
 H         1.290087         0.610400         3.532899
 H        -0.039057         1.706683         4.063841
 H        -0.370051        -1.007328         2.669909
 H        -2.374333         0.673725         1.525858
 H        -0.751016        -0.680542        -0.263954
 H        -0.137685         1.079315        -0.808833
 H         2.213101         0.349182         0.216751
 H        -0.770704         2.822110         0.529391
 H        -1.319175         2.843187         2.281204
