19
Iteration:   394
 O         1.665751         2.715093         1.797548
 C         0.602193         1.803440         1.890383
 C         0.500027         0.863163         3.160042
 C        -0.294407        -0.041599         2.152742
 C        -1.297165         0.919336         1.354786
 C        -0.597187         0.661801         0.045098
 C         0.592403         0.421548         0.993444
 O         1.894064        -0.063054         0.830023
 C        -0.813234         2.304985         1.640547
 H         2.431735         2.223401         1.413819
 H         1.464230         0.405212         3.432820
 H        -0.058096         1.238635         4.024522
 H        -0.595517        -0.988744         2.182980
 H        -2.374274         0.698764         1.521653
 H        -0.909373        -0.189955        -0.599665
 H        -0.508638         1.531916        -0.738689
 H         2.088006        -0.856470         1.340000
 H        -0.837444         2.839648         0.662865
 H        -1.384916         2.873473         2.391150
