19
Iteration:  3022charge 0 multiplicity 1
 O         1.762547         2.714360         1.687533
 C         0.691709         1.849269         1.912464
 C         0.244418         0.991914         3.205752
 C        -0.289784         0.049095         2.278489
 C        -1.285146         0.936143         1.369804
 C        -0.539776         0.378147         0.166342
 C         0.630792         0.385396         1.058468
 O         1.843071        -0.228422         0.732925
 C        -0.763303         2.389125         1.527825
 H         1.432999         3.408356         1.116530
 H         1.132621         0.596208         3.651364
 H        -0.248580         1.398418         4.084979
 H        -0.673784        -0.936439         2.511971
 H        -2.416206         0.767216         1.320399
 H        -0.830837        -0.705944        -0.075407
 H        -0.479534         0.924994        -0.859967
 H         2.567849         0.372619         0.932302
 H        -0.801242         2.937791         0.533231
 H        -1.050324         3.096150         2.342070
