19
Iteration:  4344charge 0 multiplicity 1
 O         1.667889         2.811822         1.706591
 C         0.615746         1.867145         1.812601
 C         0.507106         1.099695         3.185577
 C        -0.317945         0.136500         2.307507
 C        -1.331431         0.886263         1.294269
 C        -0.525449         0.305489         0.147638
 C         0.663757         0.457842         1.105779
 O         1.806781        -0.377827         0.908273
 C        -0.804603         2.338503         1.355233
 H         1.507260         3.431767         2.439684
 H         1.426223         0.456094         3.472156
 H         0.051058         1.541321         4.153355
 H        -0.469259        -0.892970         2.516198
 H        -2.433894         0.706833         1.436480
 H        -0.647692        -0.744728        -0.058461
 H        -0.708050         0.723449        -0.924914
 H         2.645037         0.173038         0.757274
 H        -0.737746         2.903471         0.316213
 H        -1.330738         3.046867         2.064053
