19
Iteration:  1260
 O         1.818674         2.565314         1.971361
 C         0.592396         1.852331         1.891493
 C         0.391107         1.104224         3.189620
 C        -0.237563         0.070154         2.272716
 C        -1.361395         0.867580         1.332173
 C        -0.572058         0.372176         0.075787
 C         0.669620         0.440802         1.016220
 O         1.810720        -0.093636         0.600960
 C        -0.806425         2.344255         1.479981
 H         1.851223         3.115944         2.777867
 H         1.318987         0.615726         3.476978
 H         0.014622         1.546908         4.146861
 H        -0.501799        -0.862225         2.563792
 H        -2.401589         0.592509         1.496606
 H        -0.794732        -0.685539        -0.009807
 H        -0.795409         1.107560        -0.715355
 H         1.969403        -0.015491        -0.297990
 H        -0.937807         2.933034         0.550431
 H        -1.309701         2.874212         2.269470
