19
Iteration:  3847
 O         1.651857         2.873399         1.590940
 C         0.694709         1.881623         1.822921
 C         0.470193         0.945570         3.196291
 C        -0.335407         0.031387         2.229314
 C        -1.378123         0.870673         1.228464
 C        -0.452465         0.393052         0.071183
 C         0.632614         0.495975         1.102667
 O         1.745978        -0.286177         1.053695
 C        -0.800002         2.384546         1.577807
 H         2.577846         2.509919         1.612529
 H         1.404424         0.422563         3.552599
 H        -0.026300         1.439019         4.014608
 H        -0.438987        -0.971128         2.390307
 H        -2.450935         0.680292         1.361408
 H        -0.503002        -0.693462        -0.135275
 H        -0.516628         0.768194        -0.977517
 H         2.203121        -0.096347         0.203263
 H        -0.846396         3.172710         0.810371
 H        -1.171312         2.737051         2.628352
