19
Iteration:  2235charge 0 multiplicity 1
 O         1.663939         2.690510         1.764069
 C         0.618030         1.806371         1.839216
 C         0.453870         1.000240         3.167494
 C        -0.340871         0.044514         2.266257
 C        -1.363462         0.865023         1.361207
 C        -0.540380         0.494615         0.005299
 C         0.613994         0.368959         1.073627
 O         1.916116        -0.214148         0.904500
 C        -0.751231         2.370561         1.522111
 H         1.474558         3.288037         1.017395
 H         1.370633         0.351323         3.339313
 H         0.015715         1.547991         4.030826
 H        -0.680311        -0.949721         2.650759
 H        -2.428808         0.808436         1.471166
 H        -0.759300        -0.392023        -0.612781
 H        -0.432240         1.277799        -0.659123
 H         2.501119         0.612693         0.961779
 H        -0.741705         2.901474         0.504057
 H        -1.293302         2.908626         2.299130
