19
Iteration:   513charge 0 multiplicity 1
 O         1.788872         2.693137         1.821717
 C         0.699850         1.784853         1.960877
 C         0.377665         0.901974         3.228441
 C        -0.381739         0.126883         2.237305
 C        -1.358464         0.918687         1.315713
 C        -0.579150         0.309154         0.133951
 C         0.569382         0.479251         0.988204
 O         1.828971        -0.003398         0.554129
 C        -0.732344         2.270826         1.583902
 H         2.232038         2.621360         2.684156
 H         1.329174         0.413308         3.421227
 H        -0.125139         1.222634         4.129847
 H        -0.692543        -0.856365         2.427432
 H        -2.479331         0.966438         1.362361
 H        -0.784581        -0.704425         0.039839
 H        -0.612062         0.692217        -0.834266
 H         2.521333         0.720163         0.828088
 H        -0.636146         2.918441         0.682354
 H        -1.197179         2.864412         2.367676
