19
Iteration:  3255charge 0 multiplicity 1
 O         1.733312         2.660259         1.694833
 C         0.651102         1.793797         1.843129
 C         0.438386         1.000187         3.179014
 C        -0.310212         0.062692         2.206760
 C        -1.350151         0.998020         1.360682
 C        -0.579045         0.381157         0.066953
 C         0.593355         0.467331         1.057027
 O         1.901204        -0.202248         0.904782
 C        -0.783534         2.336520         1.502175
 H         1.485184         3.452720         1.163560
 H         1.291612         0.492527         3.584010
 H        -0.044985         1.461129         3.989747
 H        -0.576418        -1.003849         2.411593
 H        -2.345520         0.767973         1.444890
 H        -0.922040        -0.621718         0.139926
 H        -0.721222         0.827162        -0.929695
 H         2.428233         0.339275         1.438591
 H        -0.829830         3.093606         0.674260
 H        -1.245079         2.771572         2.412196
