19
Iteration:  2618
 O         1.648151         2.931639         1.876819
 C         0.647042         1.927616         1.829765
 C         0.485280         1.086910         3.143209
 C        -0.304774         0.061756         2.308902
 C        -1.301713         0.813741         1.336663
 C        -0.577163         0.414931         0.097770
 C         0.621987         0.339881         1.046776
 O         1.817462        -0.322537         0.864416
 C        -0.764799         2.277589         1.405919
 H         2.509213         2.446102         1.795199
 H         1.492936         0.860669         3.552534
 H        -0.146688         1.511367         3.907758
 H        -0.674300        -0.843260         2.590970
 H        -2.408253         0.404324         1.297148
 H        -0.728543        -0.545117        -0.387944
 H        -0.642297         1.195654        -0.613557
 H         2.060458        -0.106157        -0.027067
 H        -0.787501         2.739502         0.396928
 H        -1.213299         2.916484         2.126006
