19
Iteration:  4538charge 0 multiplicity 1
 O         1.648076         2.727187         1.670631
 C         0.619091         1.836765         1.779130
 C         0.427493         1.163753         3.165757
 C        -0.333702         0.183978         2.308299
 C        -1.344336         0.906227         1.339911
 C        -0.586301         0.276281         0.131733
 C         0.661594         0.358429         1.079916
 O         1.945100        -0.310056         0.904425
 C        -0.798696         2.350447         1.362991
 H         1.990216         3.124910         2.477656
 H         1.366092         0.650065         3.442984
 H        -0.086828         1.660676         3.992315
 H        -0.484999        -0.840484         2.648436
 H        -2.473210         0.759606         1.561018
 H        -0.800863        -0.885784         0.066730
 H        -0.482779         1.033363        -0.645463
 H         2.491819         0.461153         1.159881
 H        -0.932551         2.885262         0.402232
 H        -1.234897         2.949447         2.185112
