19
Iteration:   110charge 0 multiplicity 1
 O         1.589997         2.778635         1.777193
 C         0.566428         1.872753         1.900448
 C         0.610026         0.871129         3.131847
 C        -0.230364         0.016783         2.170662
 C        -1.283975         0.939361         1.277230
 C        -0.454967         0.621032        -0.021910
 C         0.604995         0.446738         1.022818
 O         1.774157        -0.336264         0.881582
 C        -0.920174         2.349855         1.683719
 H         2.160524         2.658140         2.574362
 H         1.617652         0.583123         3.200210
 H         0.210574         1.141107         4.083294
 H        -0.544339        -0.943987         2.372544
 H        -2.302319         0.571166         1.407969
 H        -0.690475        -0.323781        -0.401750
 H        -0.342234         1.435378        -0.742049
 H         2.256740        -0.150277         0.044820
 H        -0.963054         3.110276         0.925351
 H        -1.356938         2.818668         2.532077
