19
Iteration:   117
 O         1.609207         2.829822         1.743976
 C         0.586079         1.891028         1.939246
 C         0.574216         0.893555         3.164633
 C        -0.227229         0.023431         2.095134
 C        -1.281192         0.945899         1.290492
 C        -0.455772         0.614491         0.006992
 C         0.636583         0.396110         0.987140
 O         1.748033        -0.327626         0.901810
 C        -0.894847         2.310029         1.700006
 H         2.272944         2.594391         2.412570
 H         1.633542         0.430963         3.226589
 H         0.155213         1.164620         4.177769
 H        -0.628771        -0.998596         2.401450
 H        -2.469985         0.754825         1.285447
 H        -0.844559        -0.354227        -0.547181
 H        -0.276058         1.309369        -0.832460
 H         2.210823         0.000515         0.162546
 H        -0.979671         3.121525         0.964330
 H        -1.464163         2.440484         2.727574
