19
Iteration:   696charge 0 multiplicity 1
 O         1.765134         2.651949         1.776876
 C         0.655321         1.742587         1.919181
 C         0.475180         0.876187         3.187017
 C        -0.383761         0.036221         2.263128
 C        -1.365380         0.928688         1.390564
 C        -0.572273         0.503062         0.099898
 C         0.573009         0.415284         1.037149
 O         1.857827        -0.027507         0.698629
 C        -0.749716         2.305777         1.554032
 H         1.401812         3.259512         1.089327
 H         1.356519         0.317735         3.534986
 H        -0.125344         1.309648         4.023193
 H        -0.607263        -1.050507         2.452559
 H        -2.345070         0.908868         1.436567
 H        -0.760403        -0.500605        -0.360234
 H        -0.546276         1.242051        -0.779811
 H         2.496489         0.349686         1.269380
 H        -0.736949         2.783509         0.600626
 H        -1.102212         3.081959         2.229523
