19
Iteration:  4234charge 0 multiplicity 1
 O         1.700278         2.685590         1.688594
 C         0.620192         1.822952         1.859458
 C         0.383883         1.156418         3.216288
 C        -0.368996         0.140595         2.298656
 C        -1.375202         0.897737         1.318174
 C        -0.548085         0.256360         0.143279
 C         0.706667         0.465720         1.057574
 O         1.903782        -0.277447         0.800276
 C        -0.757412         2.342937         1.402794
 H         1.879078         3.416651         2.323071
 H         1.219362         0.668683         3.728842
 H        -0.201412         1.645674         4.029961
 H        -0.586352        -0.870929         2.450413
 H        -2.402202         0.641525         1.344633
 H        -0.814374        -0.779963         0.159751
 H        -0.765640         0.869329        -0.746511
 H         2.690888         0.294434         1.149629
 H        -0.770238         3.024723         0.460180
 H        -1.259383         2.949267         2.227924
