19
Iteration:   363charge 0 multiplicity 1
 O         1.815857         2.613449         1.887225
 C         0.657312         1.845108         1.961246
 C         0.329160         0.990025         3.190779
 C        -0.377503         0.024463         2.157719
 C        -1.315845         0.920808         1.301271
 C        -0.585922         0.379832         0.096095
 C         0.622097         0.503818         1.018465
 O         1.862139         0.080873         0.528130
 C        -0.799947         2.287675         1.707758
 H         2.469546         1.901999         1.877475
 H         1.233271         0.418806         3.578807
 H        -0.283455         1.437485         3.969799
 H        -0.516731        -1.033200         2.270864
 H        -2.461331         0.739894         1.412521
 H        -0.685558        -0.726730         0.140334
 H        -0.541725         0.975105        -0.870621
 H         2.411074        -0.531870         1.098484
 H        -0.742402         2.953833         0.774097
 H        -1.497310         2.742337         2.409268
