19
Iteration:  2790charge 0 multiplicity 1
 O         1.714320         2.894375         1.803582
 C         0.696642         1.884307         1.897830
 C         0.292350         1.142250         3.175697
 C        -0.275742         0.063042         2.212095
 C        -1.363229         0.825200         1.310711
 C        -0.512458         0.402572         0.128025
 C         0.658699         0.479455         1.086874
 O         1.884433        -0.367487         0.813362
 C        -0.814603         2.314442         1.529135
 H         2.292392         2.518946         1.117995
 H         1.157878         0.687866         3.733532
 H        -0.179006         1.667288         3.988092
 H        -0.490781        -1.011255         2.433526
 H        -2.338175         0.585493         1.474487
 H        -0.685837        -0.685814        -0.234549
 H        -0.530553         1.023936        -0.835641
 H         1.784596        -0.839053        -0.124556
 H        -0.820179         2.967135         0.619982
 H        -1.361984         2.719757         2.396074
