19
Iteration:   342
 O         1.709906         2.637650         1.968122
 C         0.631797         1.773793         1.944559
 C         0.291310         0.937860         3.298483
 C        -0.321519        -0.007718         2.309138
 C        -1.349755         0.943940         1.314525
 C        -0.566327         0.384324         0.099285
 C         0.651075         0.381522         0.977547
 O         1.914389         0.089385         0.407518
 C        -0.716348         2.440760         1.557810
 H         2.413027         2.195597         1.420455
 H         1.225111         0.452763         3.678894
 H        -0.430649         1.338963         4.001158
 H        -0.812924        -1.047500         2.582092
 H        -2.490378         0.819221         1.539543
 H        -0.780369        -0.709743         0.023648
 H        -0.374616         1.003402        -0.810276
 H         2.424227        -0.598060         0.928201
 H        -0.904250         3.134694         0.665256
 H        -1.114326         2.927875         2.452014
