19
Iteration:  2844charge 0 multiplicity 1
 O         1.662035         2.713681         1.597944
 C         0.637708         1.785921         1.786300
 C         0.485553         0.968052         3.174664
 C        -0.342079         0.069213         2.271914
 C        -1.388763         0.906634         1.392517
 C        -0.563980         0.486361         0.059443
 C         0.556823         0.417297         1.037477
 O         1.959757        -0.173673         1.026334
 C        -0.764496         2.316778         1.487913
 H         2.181932         2.561956         2.393858
 H         1.384591         0.415880         3.592509
 H        -0.102771         1.454027         3.951803
 H        -0.758442        -0.930991         2.588566
 H        -2.378479         0.678449         1.410212
 H        -1.131234        -0.424871        -0.349583
 H        -0.492504         1.291596        -0.762901
 H         2.594015         0.479560         0.500632
 H        -0.939031         2.762088         0.490480
 H        -1.169845         3.056990         2.187669
