19
Iteration:  4918charge 0 multiplicity 1
 O         1.752588         2.604509         1.502326
 C         0.594441         1.806256         1.870611
 C         0.316248         1.084055         3.235536
 C        -0.427073         0.068064         2.353493
 C        -1.346751         0.874197         1.322923
 C        -0.447987         0.305885         0.145469
 C         0.630780         0.466318         1.166626
 O         1.910865        -0.110189         0.906830
 C        -0.773376         2.334193         1.464566
 H         1.573995         3.572555         1.550467
 H         1.217624         0.665615         3.443588
 H        -0.172705         1.636884         3.979427
 H        -0.594198        -0.925738         2.640311
 H        -2.407368         0.719227         1.095659
 H        -0.733469        -0.709399        -0.014371
 H        -0.321060         0.901031        -0.846224
 H         2.748532         0.497345         0.843629
 H        -0.729500         2.681278         0.438719
 H        -1.167343         3.165605         2.128077
