19
Iteration:   501charge 0 multiplicity 1
 O         1.791143         2.729479         1.926112
 C         0.705835         1.783328         1.932860
 C         0.445989         0.977707         3.232158
 C        -0.385030         0.028357         2.209459
 C        -1.337540         0.891928         1.317846
 C        -0.677719         0.254457         0.029886
 C         0.618470         0.527555         0.996938
 O         1.759227        -0.000314         0.599535
 C        -0.691790         2.326770         1.539672
 H         2.579045         2.407061         2.428880
 H         1.162782         0.359943         3.723647
 H        -0.126757         1.552379         3.990471
 H        -0.547030        -1.063860         2.307411
 H        -2.349122         0.714014         1.553150
 H        -0.818508        -0.768218         0.064646
 H        -0.817646         0.690676        -0.884232
 H         2.498706         0.620524         0.753101
 H        -0.763639         2.944238         0.661425
 H        -1.180464         2.793789         2.391339
