19
Iteration:  1483charge 0 multiplicity 1
 O         1.624979         2.765384         1.595139
 C         0.692347         1.783876         1.920598
 C         0.461406         0.917641         3.230189
 C        -0.374139         0.016779         2.231983
 C        -1.366779         0.944613         1.276458
 C        -0.389658         0.636941         0.024235
 C         0.574570         0.406473         1.109817
 O         1.856365        -0.218588         0.960246
 C        -0.773433         2.283914         1.661779
 H         1.522584         2.781674         0.612138
 H         1.267095         0.234844         3.457705
 H        -0.033993         1.337320         4.129477
 H        -0.606267        -1.056868         2.479967
 H        -2.395767         0.874115         1.250947
 H        -0.677115        -0.218918        -0.623260
 H        -0.208068         1.531372        -0.692320
 H         2.081678        -0.436141         0.031072
 H        -0.748419         3.061185         0.942343
 H        -1.209604         2.651937         2.591312
