19
Iteration:  1094
 O         1.810135         2.704376         2.144656
 C         0.688924         1.859297         1.855355
 C         0.373979         1.054879         3.136150
 C        -0.249707         0.058913         2.237719
 C        -1.338481         0.903183         1.360010
 C        -0.661388         0.371504         0.103514
 C         0.636919         0.476101         0.917420
 O         1.759314        -0.254044         0.583362
 C        -0.741991         2.337835         1.508369
 H         1.797326         3.475416         1.536502
 H         1.314740         0.640029         3.552918
 H        -0.380279         1.545015         3.913727
 H        -0.329950        -1.038076         2.322531
 H        -2.420153         0.716729         1.658681
 H        -0.607682        -0.729654         0.062114
 H        -0.714346         0.806801        -0.935881
 H         2.517968         0.376008         0.311712
 H        -1.111485         2.852166         0.578057
 H        -1.089550         2.795593         2.448772
