19
Iteration:  4061
 O         1.673597         2.753289         1.753431
 C         0.605264         1.826007         1.839633
 C         0.490178         1.099994         3.175093
 C        -0.284176         0.111083         2.251569
 C        -1.302137         0.902460         1.331967
 C        -0.564118         0.250736         0.142687
 C         0.625974         0.431879         1.063696
 O         1.788261        -0.282663         0.878729
 C        -0.769362         2.383043         1.406745
 H         1.537920         3.328260         2.512932
 H         1.450429         0.688189         3.564813
 H        -0.026999         1.655499         3.946284
 H        -0.508881        -0.908607         2.441462
 H        -2.374354         0.765432         1.321494
 H        -0.747859        -0.718329        -0.196448
 H        -0.576198         0.712214        -0.884108
 H         2.578343         0.360231         0.672333
 H        -0.633558         2.813545         0.399744
 H        -1.127008         3.094832         2.085801
