19
Iteration:  2601charge 0 multiplicity 1
 O         1.648302         2.780121         1.753313
 C         0.616441         1.875981         1.881054
 C         0.419760         1.149936         3.210168
 C        -0.274588         0.066222         2.326183
 C        -1.336855         0.873184         1.335771
 C        -0.486508         0.358170         0.012049
 C         0.637596         0.429278         1.089334
 O         1.805808        -0.285638         0.795312
 C        -0.815750         2.288686         1.459578
 H         2.466843         2.537432         2.232995
 H         1.302779         0.593123         3.531488
 H        -0.031905         1.712529         4.072508
 H        -0.377938        -1.033120         2.693625
 H        -2.370709         0.701467         1.537269
 H        -0.754185        -0.675114        -0.275928
 H        -0.148561         1.107874        -0.798665
 H         2.219947         0.360700         0.180996
 H        -0.782089         2.820779         0.504995
 H        -1.334544         2.854899         2.286632
