19
Iteration:  3968
 O         1.780247         2.583805         1.561416
 C         0.626390         1.774408         1.787896
 C         0.445669         1.056439         3.210038
 C        -0.466283         0.119851         2.333681
 C        -1.453980         0.866557         1.330066
 C        -0.651908         0.448994         0.035987
 C         0.659075         0.399313         1.053401
 O         2.050766        -0.095818         0.980000
 C        -0.733680         2.232149         1.515680
 H         1.649111         3.425597         2.057558
 H         1.328578         0.577917         3.663319
 H        -0.011463         1.707378         3.960732
 H        -0.691736        -0.848741         2.808181
 H        -2.542981         0.876504         1.235745
 H        -1.041762        -0.488706        -0.390452
 H        -0.637450         1.099174        -0.804202
 H         2.410999         0.776720         1.103732
 H        -1.063085         2.784046         0.630459
 H        -1.203614         2.886685         2.379973
