19
Iteration:  3544
 O         1.734790         2.791452         1.693220
 C         0.704011         1.901358         1.819546
 C         0.422574         0.960347         3.125166
 C        -0.320116         0.060125         2.181884
 C        -1.363368         0.904515         1.308834
 C        -0.651172         0.433798         0.058984
 C         0.623451         0.431002         1.047717
 O         1.851169        -0.273597         1.031254
 C        -0.712263         2.284026         1.624943
 H         1.504634         3.478024         1.042308
 H         1.407397         0.455896         3.377689
 H        -0.099685         1.464919         3.919913
 H        -0.635305        -0.981637         2.246574
 H        -2.525105         0.844736         1.236541
 H        -0.836987        -0.634950        -0.120881
 H        -0.570040         0.887848        -0.892994
 H         2.505626         0.154699         0.560296
 H        -0.948705         3.106375         0.897778
 H        -1.026112         2.623531         2.659797
