19
Iteration:  4285
 O         1.763980         2.470991         1.435718
 C         0.519838         1.834388         1.894986
 C         0.380390         1.118971         3.228768
 C        -0.361096         0.145580         2.235367
 C        -1.376674         0.829010         1.341752
 C        -0.530726         0.423737         0.038567
 C         0.681587         0.535410         1.131945
 O         1.921804        -0.110169         1.022991
 C        -0.812013         2.295353         1.519961
 H         2.349270         2.919051         2.094851
 H         1.264302         0.575649         3.486567
 H        -0.169980         1.436560         4.179105
 H        -0.503926        -0.962813         2.543604
 H        -2.448183         0.791453         1.406280
 H        -0.567673        -0.727866         0.001460
 H        -0.576509         1.119850        -0.804532
 H         2.423208         0.685533         0.826128
 H        -0.715961         2.725135         0.579843
 H        -1.458579         2.859612         2.159852
