19
Iteration:  2753charge 0 multiplicity 1
 O         1.686750         2.729464         1.844976
 C         0.590978         1.824690         1.863140
 C         0.497533         1.047361         3.222081
 C        -0.405069         0.086351         2.273510
 C        -1.388882         0.928755         1.269415
 C        -0.562919         0.316447         0.105696
 C         0.586436         0.381981         1.092919
 O         1.949894        -0.036503         0.804997
 C        -0.734655         2.300409         1.416683
 H         2.276750         2.585913         1.062601
 H         1.468508         0.590011         3.384866
 H         0.084405         1.685983         4.045289
 H        -0.674908        -0.970155         2.686718
 H        -2.514129         0.612434         1.377016
 H        -0.888803        -0.713977        -0.143798
 H        -0.394584         0.999562        -0.798047
 H         1.843273        -1.049491         0.790765
 H        -0.648348         2.980401         0.582736
 H        -1.154700         2.961884         2.211456
