19
Iteration:  3734
 O         1.674112         2.781038         1.678993
 C         0.589722         1.905684         1.818518
 C         0.471508         1.057405         3.238685
 C        -0.298955         0.053955         2.277786
 C        -1.338679         0.846809         1.348602
 C        -0.524692         0.382338         0.065834
 C         0.597770         0.333344         1.071449
 O         1.804025        -0.216168         0.903952
 C        -0.745897         2.320520         1.470472
 H         2.242508         2.580351         2.437649
 H         1.495161         0.757856         3.468134
 H        -0.034144         1.581457         4.096574
 H        -0.624786        -1.006660         2.638746
 H        -2.408363         0.661758         1.365669
 H        -0.806444        -0.541161        -0.494705
 H        -0.418833         1.186195        -0.712464
 H         2.396406         0.287838         0.389586
 H        -0.753690         2.861570         0.414300
 H        -1.168530         3.179050         2.089267
