19
Iteration:  2177
 O         1.846896         2.537764         1.928717
 C         0.595998         1.780431         1.876307
 C         0.313517         1.120969         3.213235
 C        -0.284639         0.003415         2.329338
 C        -1.367593         0.880046         1.346995
 C        -0.588457         0.376420         0.130651
 C         0.602479         0.351280         1.082103
 O         1.899207         0.058210         0.602196
 C        -0.801233         2.311276         1.410641
 H         2.176023         2.744844         1.021040
 H         1.249833         0.829150         3.639346
 H        -0.209264         1.648735         4.005549
 H        -0.711240        -1.011891         2.667462
 H        -2.460789         0.935556         1.319967
 H        -0.828405        -0.634763        -0.060821
 H        -0.540060         0.997502        -0.771073
 H         2.549887         0.643334         1.136192
 H        -0.820903         2.773149         0.414649
 H        -1.394387         3.037122         1.979485
