19
Iteration:  3162
 O         1.782399         2.765507         1.850986
 C         0.690203         1.859213         1.864951
 C         0.407209         1.054847         3.108081
 C        -0.292389         0.109206         2.152584
 C        -1.400174         0.857117         1.390166
 C        -0.712210         0.341285         0.055288
 C         0.655606         0.468818         1.037770
 O         1.855911        -0.256447         0.902352
 C        -0.736682         2.290065         1.483312
 H         1.728845         3.392607         1.116378
 H         1.166397         0.441356         3.656617
 H        -0.057426         1.671784         3.941116
 H        -0.292728        -0.949828         2.281282
 H        -2.483245         0.527401         1.563636
 H        -0.836996        -0.765211         0.006691
 H        -0.980021         0.817664        -0.834049
 H         2.561311         0.502829         0.860273
 H        -0.619348         2.843204         0.536412
 H        -1.151078         2.993115         2.233281
