19
Iteration:   986
 O         1.787679         2.574750         1.897658
 C         0.644211         1.788757         1.902297
 C         0.360283         0.942569         3.201265
 C        -0.338570        -0.002877         2.244955
 C        -1.349409         0.877754         1.362641
 C        -0.622266         0.523237         0.086483
 C         0.640770         0.473760         1.021227
 O         1.839767        -0.054780         0.651749
 C        -0.705462         2.320651         1.572617
 H         1.657404         3.268309         1.213369
 H         1.304369         0.517921         3.554427
 H         0.024839         1.292256         4.234980
 H        -0.672620        -0.984715         2.522768
 H        -2.497786         0.754732         1.425999
 H        -0.826968        -0.514194        -0.279625
 H        -0.522997         1.316657        -0.743905
 H         2.472442         0.627246         0.263093
 H        -0.725759         2.732519         0.512848
 H        -1.219175         2.966671         2.327896
