19
Iteration:  1104charge 0 multiplicity 1
 O         1.813345         2.662293         2.190495
 C         0.690000         1.864789         1.841663
 C         0.442882         1.054063         3.105524
 C        -0.252997         0.067741         2.181626
 C        -1.334690         0.859345         1.347860
 C        -0.673267         0.280832         0.094295
 C         0.617537         0.512022         0.981952
 O         1.754518        -0.189361         0.611099
 C        -0.750088         2.340950         1.494442
 H         1.821778         3.407591         1.550435
 H         1.467265         0.771021         3.491161
 H         0.045042         1.481739         4.068706
 H        -0.621009        -0.944128         2.626796
 H        -2.475914         1.031701         1.355187
 H        -0.899875        -0.799539        -0.076202
 H        -0.864795         0.863811        -0.830502
 H         2.432644         0.464026         0.152879
 H        -0.905768         2.914108         0.527637
 H        -1.368447         2.867723         2.263314
