19
Iteration:   737
 O         1.789822         2.685954         1.769765
 C         0.680383         1.829958         1.808680
 C         0.484385         0.939637         3.093014
 C        -0.332831         0.069910         2.121718
 C        -1.403935         0.926465         1.379753
 C        -0.512889         0.513978        -0.008727
 C         0.641033         0.498097         1.027607
 O         1.876374        -0.190209         0.927708
 C        -0.929727         2.286808         1.779340
 H         2.085211         3.104146         0.951789
 H         1.319807         0.341900         3.379372
 H         0.214929         1.480415         4.044544
 H        -0.501413        -1.045605         2.420111
 H        -2.573522         0.733614         1.431726
 H        -0.968046        -0.374308        -0.455842
 H        -0.544627         1.336928        -0.656165
 H         2.071405        -0.498087        -0.045004
 H        -1.261879         3.090633         1.118045
 H        -1.425834         2.512100         2.758192
