19
Iteration:   961charge 0 multiplicity 1
 O         1.778885         2.695571         1.983591
 C         0.667579         1.828074         1.973714
 C         0.439035         0.954156         3.171520
 C        -0.361635         0.056692         2.246320
 C        -1.354594         0.965694         1.318882
 C        -0.561320         0.358572         0.075232
 C         0.616077         0.362202         1.047496
 O         1.783517        -0.139163         0.473658
 C        -0.708172         2.370983         1.540537
 H         1.386481         3.527306         2.332493
 H         1.393465         0.527261         3.699984
 H         0.056235         1.398999         4.157482
 H        -0.825343        -1.009881         2.466715
 H        -2.479348         0.870318         1.518735
 H        -0.852906        -0.719144         0.034680
 H        -0.408412         0.875155        -0.924990
 H         2.546522         0.573790         0.556657
 H        -0.626676         2.944812         0.592751
 H        -1.443755         2.737835         2.272108
