19
Iteration:  4552charge 0 multiplicity 1
 O         1.747363         2.713583         1.557855
 C         0.593552         1.863324         1.840676
 C         0.437138         1.110428         3.182921
 C        -0.389207         0.101975         2.334334
 C        -1.368644         0.877843         1.328597
 C        -0.520004         0.301558         0.121547
 C         0.638632         0.472607         1.114516
 O         1.888303        -0.189844         0.952621
 C        -0.825833         2.283204         1.408391
 H         2.124775         2.749029         2.454485
 H         1.450053         0.649705         3.491507
 H         0.140192         1.694133         4.099949
 H        -0.891161        -0.812926         2.664384
 H        -2.496193         0.696737         1.288552
 H        -0.774811        -0.782141        -0.117712
 H        -0.636160         0.591835        -0.933290
 H         2.718963         0.295197         0.998379
 H        -0.671923         2.765214         0.360343
 H        -1.338765         3.033035         2.064174
