19
Iteration:  4034charge 0 multiplicity 1
 O         1.716495         2.831365         1.678605
 C         0.671216         1.870083         1.797971
 C         0.443899         1.113402         3.139312
 C        -0.381103         0.102128         2.299966
 C        -1.298618         0.848074         1.335829
 C        -0.596139         0.410098         0.110385
 C         0.630800         0.334853         1.062564
 O         1.910360        -0.363614         0.937998
 C        -0.815425         2.293877         1.494134
 H         1.534786         3.607090         2.226774
 H         1.291060         0.595902         3.568686
 H        -0.075574         1.702957         3.956420
 H        -0.731493        -0.950637         2.633441
 H        -2.380595         0.712336         1.138620
 H        -0.948855        -0.482464        -0.487586
 H        -0.499455         1.038328        -0.759847
 H         2.590074         0.259087         0.451939
 H        -0.985534         2.847774         0.556144
 H        -1.090066         2.896023         2.483829
