19
Iteration:  2611
 O         1.661390         2.898752         1.834967
 C         0.618128         1.846927         1.844400
 C         0.464136         1.112196         3.207239
 C        -0.246243         0.117075         2.302024
 C        -1.279422         0.762006         1.322995
 C        -0.491385         0.411151         0.075070
 C         0.582436         0.306010         1.081011
 O         1.764178        -0.276564         0.826517
 C        -0.787381         2.307064         1.405951
 H         2.417836         2.287207         1.992390
 H         1.423728         0.752806         3.537933
 H        -0.064463         1.636276         4.043004
 H        -0.630532        -0.866305         2.700437
 H        -2.334817         0.774577         1.406599
 H        -0.687736        -0.533220        -0.477152
 H        -0.667266         1.223895        -0.717367
 H         2.272541         0.060578         0.021430
 H        -0.945531         2.785518         0.451354
 H        -1.334738         2.965437         2.114872
