19
Iteration:  2787charge 0 multiplicity 1
 O         1.709863         2.882806         1.824334
 C         0.657404         1.913739         1.869750
 C         0.312242         1.134324         3.169091
 C        -0.299459         0.049250         2.199777
 C        -1.336521         0.840593         1.336812
 C        -0.512318         0.414048         0.132786
 C         0.641860         0.469438         1.077911
 O         1.892586        -0.356090         0.813048
 C        -0.780809         2.283165         1.508842
 H         2.297242         2.527856         1.104423
 H         1.219733         0.806742         3.728552
 H        -0.252392         1.684268         3.977307
 H        -0.477209        -1.079504         2.569042
 H        -2.398453         0.520916         1.427878
 H        -0.803867        -0.631967        -0.212382
 H        -0.521429         1.108876        -0.798745
 H         1.748771        -0.804392        -0.002957
 H        -0.793549         2.846437         0.586326
 H        -1.257992         2.737760         2.406025
