19
Iteration:  3360charge 0 multiplicity 1
 O         1.703611         2.753686         1.730885
 C         0.692643         1.794717         1.854311
 C         0.573645         0.970175         3.123779
 C        -0.402378         0.052243         2.304223
 C        -1.414648         0.940096         1.236039
 C        -0.523349         0.492382         0.042147
 C         0.610027         0.454073         1.120100
 O         1.774964        -0.267843         0.940699
 C        -0.757534         2.251702         1.512678
 H         1.237598         3.447607         1.206677
 H         1.547977         0.476765         3.206550
 H         0.267309         1.572132         4.079709
 H        -0.617858        -0.857352         2.884330
 H        -2.538513         1.074331         1.476716
 H        -0.625191        -0.626621        -0.204688
 H        -0.179438         1.054920        -0.920506
 H         2.584579         0.396559         0.891593
 H        -0.953230         2.669203         0.504410
 H        -1.140106         2.935780         2.329558
