19
Iteration:   398
 O         1.638190         2.731099         1.770422
 C         0.578673         1.798065         1.937518
 C         0.488984         0.865114         3.119155
 C        -0.272415        -0.027149         2.135047
 C        -1.299069         0.931974         1.347364
 C        -0.577419         0.682326         0.062495
 C         0.598850         0.394082         0.982824
 O         1.915143        -0.084786         0.847983
 C        -0.805209         2.315676         1.662093
 H         2.409572         2.319085         1.351800
 H         1.440816         0.334440         3.416272
 H         0.041895         1.222851         4.067096
 H        -0.645009        -1.164899         2.195848
 H        -2.441132         0.824069         1.551663
 H        -0.977714        -0.131196        -0.593199
 H        -0.412378         1.405683        -0.752318
 H         2.016701        -0.974886         1.314536
 H        -0.888187         2.851665         0.681489
 H        -1.361527         2.853307         2.431127
