19
Iteration:  2586
 O         1.684336         2.720684         1.600376
 C         0.612633         1.818965         1.886377
 C         0.377413         1.067879         3.201948
 C        -0.350647         0.091438         2.243654
 C        -1.361251         0.875185         1.287044
 C        -0.491481         0.373409         0.157704
 C         0.653471         0.448789         1.101533
 O         1.905878        -0.218905         0.803682
 C        -0.788742         2.335033         1.591660
 H         2.152293         2.743675         2.458594
 H         1.315168         0.792781         3.656642
 H        -0.279646         1.554568         3.903858
 H        -0.648318        -0.862327         2.439754
 H        -2.470764         0.726847         1.188164
 H        -0.631135        -0.719402         0.075072
 H        -0.689828         0.775897        -0.816055
 H         2.646822         0.368360         0.402144
 H        -0.855440         2.961814         0.707686
 H        -1.214636         2.889067         2.388536
