19
Iteration:  2647charge 0 multiplicity 1
 O         1.526239         2.920934         1.794160
 C         0.665863         1.877798         1.839617
 C         0.448134         0.989504         3.224571
 C        -0.309500         0.163365         2.179085
 C        -1.288437         0.974048         1.291531
 C        -0.554343         0.258721         0.090638
 C         0.679222         0.411333         0.953745
 O         1.855475        -0.307504         0.925432
 C        -0.716904         2.351289         1.564840
 H         2.425519         2.602162         1.566838
 H         1.388110         0.562292         3.662262
 H        -0.188726         1.403172         4.020449
 H        -0.619038        -0.947142         2.265534
 H        -2.282674         0.698559         1.336635
 H        -0.615988        -0.849685         0.098807
 H        -0.706825         0.698386        -0.912821
 H         1.841395        -0.726208        -0.009923
 H        -0.779975         3.065005         0.705377
 H        -1.076493         2.769414         2.546025
