19
Iteration:  4544
 O         1.680842         2.714960         1.622063
 C         0.629596         1.847528         1.809745
 C         0.426218         1.138913         3.200839
 C        -0.349502         0.148068         2.307778
 C        -1.360137         0.910447         1.348769
 C        -0.561277         0.263219         0.133609
 C         0.627718         0.429483         1.069671
 O         1.947024        -0.266133         0.925199
 C        -0.845274         2.313858         1.365754
 H         2.000063         2.927770         2.512952
 H         1.406917         0.660796         3.316345
 H         0.033833         1.726493         4.055882
 H        -0.757204        -0.806786         2.714498
 H        -2.370491         0.793952         1.443704
 H        -0.749562        -0.717337        -0.001288
 H        -0.538865         0.906177        -0.784785
 H         2.684527         0.306608         1.106714
 H        -0.769303         2.818376         0.396676
 H        -1.211504         2.969367         2.156005
