19
Iteration:  2781charge 0 multiplicity 1
 O         1.690667         2.849900         1.852260
 C         0.601559         1.931084         1.833481
 C         0.360577         1.117480         3.172820
 C        -0.329005         0.030423         2.232021
 C        -1.303543         0.855199         1.375861
 C        -0.521428         0.436028         0.099841
 C         0.652683         0.414032         1.058326
 O         1.891101        -0.302639         0.833298
 C        -0.744809         2.245048         1.483556
 H         2.310126         2.602635         1.143985
 H         1.331860         0.921884         3.639898
 H        -0.373279         1.620519         3.801206
 H        -0.443734        -0.905395         2.633454
 H        -2.357183         0.616567         1.340395
 H        -0.928237        -0.538903        -0.166748
 H        -0.511289         1.174054        -0.672093
 H         1.626792        -0.853417        -0.012922
 H        -0.862810         2.750605         0.492948
 H        -1.103893         2.899169         2.286116
