19
Iteration:  3233charge 0 multiplicity 1
 O         1.837200         2.672323         1.600423
 C         0.678473         1.852837         1.854011
 C         0.305102         1.074653         3.172873
 C        -0.347575         0.047254         2.212499
 C        -1.346860         0.743513         1.327983
 C        -0.571080         0.436422         0.051197
 C         0.585021         0.426458         1.096698
 O         1.830242        -0.197422         0.883058
 C        -0.735860         2.392334         1.655508
 H         1.479190         3.459049         1.181851
 H         1.130831         0.628654         3.683697
 H        -0.216624         1.534692         3.955971
 H        -0.348004        -1.044364         2.457841
 H        -2.346737         0.604765         1.527140
 H        -0.664402        -0.570252        -0.293108
 H        -0.458253         1.220908        -0.753069
 H         2.574727         0.342270         1.400837
 H        -0.870033         2.955897         0.673135
 H        -1.179025         2.969896         2.490871
