19
Iteration:  2564
 O         1.786930         2.639971         1.488592
 C         0.672871         1.836053         1.877345
 C         0.350567         0.949958         3.198307
 C        -0.371178         0.059158         2.261171
 C        -1.348024         0.927256         1.371002
 C        -0.606624         0.340894         0.031826
 C         0.544910         0.396135         1.088976
 O         1.962690        -0.029090         0.938157
 C        -0.757288         2.310101         1.572555
 H         1.752297         3.292265         2.214939
 H         1.271650         0.546947         3.607781
 H        -0.205612         1.441389         3.976174
 H        -0.600159        -0.902895         2.436952
 H        -2.442412         0.703493         1.529704
 H        -0.968273        -0.658565        -0.276505
 H        -0.505314         0.891580        -0.903517
 H         2.599456         0.650229         1.173980
 H        -0.929625         2.979701         0.730366
 H        -1.197802         2.833004         2.373411
