19
Iteration:  3912charge 0 multiplicity 1
 O         1.755908         2.715998         1.724687
 C         0.652649         1.851817         1.919290
 C         0.331782         1.168042         3.213098
 C        -0.334430         0.131290         2.271782
 C        -1.340752         0.826064         1.328154
 C        -0.568052         0.350250         0.132387
 C         0.646439         0.411736         1.127674
 O         1.879307        -0.248552         0.713635
 C        -0.762725         2.302879         1.409437
 H         2.192760         2.832826         2.563889
 H         1.204440         0.657400         3.721928
 H        -0.246797         1.797235         3.838161
 H        -0.747245        -0.716467         2.674739
 H        -2.405051         0.623756         1.541242
 H        -0.645360        -0.730715         0.010397
 H        -0.682342         0.891549        -0.770216
 H         2.322689         0.463469         0.343937
 H        -0.752863         2.815295         0.434075
 H        -1.314475         2.767972         2.313808
