19
Iteration:  2315charge 0 multiplicity 1
 O         1.629869         2.861113         1.969090
 C         0.644651         1.835018         1.848418
 C         0.412925         1.104481         3.150448
 C        -0.305441         0.065178         2.353690
 C        -1.367762         0.850649         1.409270
 C        -0.509651         0.402759         0.035674
 C         0.662564         0.385163         1.050689
 O         1.806700        -0.370182         0.750869
 C        -0.668193         2.314134         1.384043
 H         1.540384         3.318720         1.114992
 H         1.452109         0.916690         3.452359
 H        -0.011324         1.412941         4.125558
 H        -0.562169        -0.883012         2.672788
 H        -2.492392         0.674777         1.466961
 H        -0.823970        -0.508191        -0.442032
 H        -0.451887         1.107206        -0.684743
 H         2.295477         0.137955        -0.008399
 H        -0.750973         2.800373         0.375494
 H        -1.025988         3.061312         2.149291
