19
Iteration:  4546
 O         1.699787         2.714785         1.601695
 C         0.625234         1.852933         1.822028
 C         0.428619         1.129339         3.204710
 C        -0.357800         0.130360         2.312325
 C        -1.362391         0.906529         1.349228
 C        -0.546250         0.275671         0.137358
 C         0.620703         0.450640         1.075835
 O         1.938301        -0.244191         0.933738
 C        -0.851511         2.302270         1.370105
 H         1.998270         2.846835         2.512510
 H         1.387007         0.689785         3.330108
 H         0.099565         1.720084         4.052574
 H        -0.840867        -0.781122         2.711116
 H        -2.394051         0.780314         1.386394
 H        -0.770436        -0.752818        -0.091445
 H        -0.582794         0.783008        -0.860689
 H         2.736417         0.246619         1.070672
 H        -0.716962         2.770079         0.447757
 H        -1.222025         2.982100         2.123343
