19
Iteration:  2351
 O         1.842877         2.650357         1.750506
 C         0.596723         1.885506         1.872316
 C         0.362399         1.034394         3.208872
 C        -0.348659         0.053257         2.203716
 C        -1.390345         0.883484         1.296800
 C        -0.602234         0.261626         0.069594
 C         0.610376         0.469693         1.011931
 O         1.909205        -0.118939         0.863351
 C        -0.769478         2.372185         1.560661
 H         1.804227         3.286117         1.015177
 H         1.308524         0.565291         3.416599
 H        -0.245093         1.421344         4.057757
 H        -0.632027        -1.008885         2.638122
 H        -2.463054         0.792650         1.392150
 H        -0.832974        -0.790571         0.058413
 H        -0.462436         0.657084        -0.969539
 H         2.620454         0.578778         1.124490
 H        -0.958242         3.037043         0.760084
 H        -1.089071         2.824352         2.512631
