19
Iteration:  1615charge 0 multiplicity 1
 O         1.745147         2.646857         1.707370
 C         0.654988         1.806584         1.884470
 C         0.385990         0.873564         3.155073
 C        -0.273069         0.000291         2.141229
 C        -1.285324         0.946120         1.346042
 C        -0.668600         0.572656         0.046384
 C         0.632974         0.467590         0.989261
 O         1.930236        -0.139212         0.931870
 C        -0.810811         2.394633         1.668620
 H         1.452473         3.554434         1.491298
 H         1.294207         0.489849         3.571643
 H        -0.235752         1.336441         3.943751
 H        -0.425699        -1.072718         2.322276
 H        -2.258633         0.698937         1.297070
 H        -1.052677        -0.358896        -0.378816
 H        -0.621550         1.231741        -0.884328
 H         2.017190        -1.052454         0.661289
 H        -0.838282         3.025707         0.890227
 H        -1.177006         2.680501         2.602871
