19
Iteration:  2319
 O         1.630908         2.829476         1.947095
 C         0.627070         1.828923         1.846599
 C         0.434346         1.106993         3.196162
 C        -0.303451         0.053582         2.310753
 C        -1.357202         0.840446         1.422601
 C        -0.533776         0.422969         0.066296
 C         0.659635         0.424446         1.033057
 O         1.800014        -0.332494         0.763415
 C        -0.655642         2.287113         1.361814
 H         1.669441         3.360873         1.123257
 H         1.414504         0.707500         3.490548
 H        -0.095538         1.521113         4.099128
 H        -0.651942        -0.994685         2.766483
 H        -2.415046         0.685428         1.520200
 H        -0.823596        -0.544364        -0.374837
 H        -0.363284         1.205312        -0.858064
 H         2.261807         0.194223         0.162053
 H        -0.721909         2.647991         0.374709
 H        -1.038013         3.074863         2.008603
