19
Iteration:  4027charge 0 multiplicity 1
 O         1.751012         2.825500         1.618611
 C         0.650817         1.830719         1.852698
 C         0.433433         1.090773         3.206659
 C        -0.373665         0.154092         2.234343
 C        -1.334854         0.823009         1.311019
 C        -0.554499         0.395805         0.051481
 C         0.656467         0.372746         1.099264
 O         1.882862        -0.353376         0.935971
 C        -0.829601         2.294831         1.538453
 H         1.521620         3.595750         2.136437
 H         1.307670         0.571119         3.555887
 H        -0.035302         1.767925         3.933335
 H        -0.622411        -0.882794         2.595375
 H        -2.402883         0.689151         1.286280
 H        -0.870769        -0.604418        -0.203983
 H        -0.571416         1.324960        -0.580246
 H         2.623852         0.135494         0.457282
 H        -0.931454         2.869674         0.600342
 H        -1.348135         2.815717         2.331611
