19
Iteration:  1560
 O         1.737757         2.621042         1.894518
 C         0.632580         1.823410         1.912439
 C         0.382720         1.010154         3.209848
 C        -0.328318         0.048108         2.250397
 C        -1.373499         0.932935         1.391220
 C        -0.603669         0.375412         0.090051
 C         0.613248         0.412587         1.073385
 O         1.936620        -0.042608         0.601159
 C        -0.743333         2.343636         1.436439
 H         1.961587         2.921353         2.797638
 H         1.350900         0.762819         3.578800
 H        -0.212736         1.485556         4.020403
 H        -0.743826        -0.928846         2.599391
 H        -2.367747         0.916327         1.515344
 H        -0.813740        -0.674998        -0.057727
 H        -0.423286         1.078562        -0.775073
 H         1.850586        -0.674952        -0.060072
 H        -0.655678         2.797139         0.511218
 H        -1.103533         3.099584         2.084927
