19
Iteration:  2819charge 0 multiplicity 1
 O         1.616303         2.836713         1.664902
 C         0.618930         1.862444         1.876506
 C         0.420179         1.058124         3.206620
 C        -0.321477         0.062696         2.296534
 C        -1.299617         0.921558         1.231330
 C        -0.446564         0.380910         0.079431
 C         0.580448         0.432368         1.107535
 O         1.838997        -0.266733         0.886356
 C        -0.741276         2.310360         1.577636
 H         2.402322         2.278061         1.719150
 H         1.369557         0.531331         3.477898
 H         0.070296         1.556399         4.130845
 H        -0.820335        -0.968092         2.383060
 H        -2.413935         0.729438         1.300651
 H        -0.792010        -0.619515        -0.128400
 H        -0.239441         0.904890        -0.874523
 H         2.139570        -0.210487        -0.041600
 H        -0.814024         3.048397         0.795701
 H        -1.333342         2.686611         2.429068
