19
Iteration:   776charge 0 multiplicity 1
 O         1.615442         2.796827         1.892413
 C         0.669477         1.806567         1.929662
 C         0.456505         0.889508         3.258534
 C        -0.272080         0.044895         2.227654
 C        -1.319127         0.961109         1.370352
 C        -0.583904         0.500739         0.082984
 C         0.592750         0.435616         1.002788
 O         1.847154        -0.214150         0.597286
 C        -0.692225         2.333079         1.556496
 H         1.468153         3.264425         1.038689
 H         1.390117         0.332628         3.612114
 H         0.037826         1.386934         4.143107
 H        -0.596058        -0.972116         2.219624
 H        -2.402945         0.784748         1.563319
 H        -0.745879        -0.533261        -0.297112
 H        -0.284089         1.171378        -0.810779
 H         1.795663        -0.982042         1.171755
 H        -0.623194         2.921262         0.583581
 H        -1.072578         3.040116         2.314620
