19
Iteration:  3593charge 0 multiplicity 1
 O         1.881099         2.601323         1.730917
 C         0.673848         1.779303         1.894242
 C         0.298967         1.073887         3.218208
 C        -0.402433         0.049839         2.413789
 C        -1.372848         0.874079         1.338018
 C        -0.515369         0.402438         0.166657
 C         0.652963         0.411691         1.069878
 O         1.815590        -0.067247         0.669196
 C        -0.771922         2.288921         1.445951
 H         1.573186         3.522123         1.734468
 H         1.255126         0.692141         3.532089
 H        -0.179650         1.792418         3.903501
 H        -0.672312        -1.009861         2.653383
 H        -2.413923         0.662104         1.337497
 H        -0.667200        -0.613412        -0.260352
 H        -0.662286         1.020002        -0.822700
 H         2.629361         0.473260         1.013509
 H        -0.781859         2.747277         0.426629
 H        -1.395165         2.988089         2.033541
