19
Iteration:   795
 O         1.739917         2.817121         1.976108
 C         0.723004         1.849315         1.932724
 C         0.366328         0.946180         3.144039
 C        -0.341963         0.007926         2.197645
 C        -1.339491         0.944200         1.367935
 C        -0.605564         0.390097         0.118263
 C         0.687012         0.409797         1.037585
 O         1.803893        -0.226568         0.520950
 C        -0.699520         2.346625         1.574949
 H         1.538820         3.527217         1.340481
 H         1.314477         0.477942         3.536560
 H        -0.220365         1.424188         3.938061
 H        -0.678601        -0.948415         2.532575
 H        -2.302089         0.882553         1.395365
 H        -0.926371        -0.643614        -0.030600
 H        -0.894420         0.924062        -0.809631
 H         2.490754        -0.260797         1.166000
 H        -0.719998         2.905329         0.691307
 H        -1.190431         2.922602         2.321273
