19
Iteration:  4652charge 0 multiplicity 1
 O         1.570010         2.954245         1.690652
 C         0.644635         1.891566         1.803588
 C         0.467332         1.145448         3.175258
 C        -0.329541         0.165271         2.266192
 C        -1.355194         0.884829         1.278098
 C        -0.527436         0.264086         0.126879
 C         0.673829         0.393454         1.088349
 O         1.861624        -0.430968         0.985686
 C        -0.748124         2.300005         1.400518
 H         2.253243         2.760918         2.352216
 H         1.447481         0.767369         3.592356
 H        -0.039969         1.596690         4.055012
 H        -0.544080        -0.910059         2.564426
 H        -2.399585         0.770229         1.416453
 H        -0.617877        -0.755279         0.120416
 H        -0.528489         0.818199        -0.794277
 H         2.182288        -0.376713         0.097105
 H        -0.791232         2.863916         0.423085
 H        -1.194742         2.950066         2.200266
