19
Iteration:  4179
 O         1.628561         2.761598         1.676388
 C         0.647675         1.797574         1.844617
 C         0.464562         1.173562         3.177456
 C        -0.293750         0.141255         2.298253
 C        -1.339986         0.991668         1.300359
 C        -0.538435         0.395950         0.065940
 C         0.602743         0.361429         1.088034
 O         1.937409        -0.393654         0.873661
 C        -0.861376         2.286119         1.454243
 H         1.833107         3.381273         2.413885
 H         1.269709         0.573162         3.567364
 H        -0.107700         1.642675         3.975749
 H        -0.537821        -0.862661         2.594265
 H        -2.364556         0.819177         1.401452
 H        -0.930785        -0.572642        -0.069698
 H        -0.561947         0.799285        -0.950669
 H         2.828991         0.056912         1.151677
 H        -0.923379         2.950184         0.514179
 H        -1.154226         2.937498         2.360797
