19
Iteration:  1013charge 0 multiplicity 1
 O         1.816932         2.598642         1.725236
 C         0.642408         1.789918         1.830502
 C         0.441502         0.862309         3.192680
 C        -0.255583         0.016374         2.115140
 C        -1.388507         0.918792         1.325008
 C        -0.644711         0.561376         0.019473
 C         0.608959         0.487828         0.965650
 O         1.867665        -0.084859         0.901826
 C        -0.839754         2.360425         1.784854
 H         1.939314         2.869540         0.791278
 H         1.384923         0.361843         3.604197
 H        -0.145372         1.219501         3.985788
 H        -0.601642        -1.090052         2.204521
 H        -2.415458         0.652139         1.309644
 H        -0.986100        -0.375186        -0.417301
 H        -0.551352         1.246710        -0.789299
 H         2.622363         0.481817         1.279146
 H        -1.132198         3.024054         0.991171
 H        -1.250474         2.813312         2.724901
