19
Iteration:  4612charge 0 multiplicity 1
 O         1.674808         2.724696         1.550811
 C         0.584541         1.854660         1.773062
 C         0.347057         1.146108         3.207546
 C        -0.326630         0.094749         2.294813
 C        -1.407108         0.883919         1.342526
 C        -0.512288         0.333396         0.159324
 C         0.695793         0.393621         1.138597
 O         1.969003        -0.231851         1.000117
 C        -0.823212         2.332020         1.420619
 H         2.470361         2.252450         1.876136
 H         1.286625         0.653952         3.416608
 H        -0.267818         1.753420         3.957072
 H        -0.627586        -0.944568         2.598921
 H        -2.548529         0.746434         1.485687
 H        -0.841875        -0.629252        -0.348088
 H        -0.423622         1.058289        -0.699314
 H         2.617170         0.458394         0.627459
 H        -0.858141         2.808281         0.455452
 H        -1.221741         2.884703         2.293134
