19
Iteration:   670charge 0 multiplicity 1
 O         1.802401         2.624544         1.917251
 C         0.630397         1.783513         1.908292
 C         0.371798         1.045730         3.213208
 C        -0.404278         0.059078         2.330151
 C        -1.314050         0.896742         1.321119
 C        -0.588768         0.346780         0.127204
 C         0.657653         0.411856         1.022624
 O         1.856320        -0.034652         0.480919
 C        -0.732238         2.320810         1.536377
 H         1.488218         3.536039         1.733413
 H         1.275218         0.554304         3.589672
 H        -0.130520         1.519971         4.099345
 H        -0.618353        -1.043694         2.589362
 H        -2.519954         1.025474         1.469587
 H        -0.775622        -0.669839        -0.245224
 H        -0.680383         0.993260        -0.717406
 H         2.532722        -0.346622         1.018576
 H        -0.843336         3.068266         0.688996
 H        -1.122944         2.937458         2.401952
