19
Iteration:   516charge 0 multiplicity 1
 O         1.785563         2.677354         1.802022
 C         0.662453         1.803865         1.952723
 C         0.369017         0.879405         3.217191
 C        -0.377014         0.116403         2.238474
 C        -1.364396         0.929148         1.329873
 C        -0.572661         0.341320         0.146266
 C         0.574043         0.465932         1.021056
 O         1.865026        -0.013782         0.543343
 C        -0.727886         2.279755         1.591214
 H         2.153385         2.696343         2.701766
 H         1.366191         0.392556         3.401388
 H        -0.061216         1.281121         4.131716
 H        -0.713219        -0.832587         2.510443
 H        -2.571684         0.953760         1.286500
 H        -0.783735        -0.767332         0.040372
 H        -0.571686         0.797009        -0.913845
 H         2.436785         0.681732         0.819535
 H        -0.600726         2.926545         0.647960
 H        -1.241254         2.856012         2.389956
