19
Iteration:  4169charge 0 multiplicity 1
 O         1.664695         2.731028         1.597704
 C         0.624495         1.844574         1.879531
 C         0.471494         1.085790         3.198749
 C        -0.357073         0.139479         2.250195
 C        -1.358153         0.872451         1.291120
 C        -0.568944         0.314734         0.046513
 C         0.649537         0.411653         1.065330
 O         1.872433        -0.296436         0.939871
 C        -0.761103         2.383368         1.498494
 H         1.874866         3.206674         2.420909
 H         1.392556         0.626432         3.585644
 H        -0.041618         1.688423         3.922750
 H        -0.494857        -0.870257         2.500982
 H        -2.421563         0.718741         1.313180
 H        -0.859954        -0.693498        -0.014584
 H        -0.511363         0.847904        -0.922210
 H         2.593034         0.338697         1.258400
 H        -0.735975         3.128251         0.623755
 H        -1.210166         2.813658         2.455901
