19
Iteration:   764
 O         1.645764         2.768855         1.848169
 C         0.667279         1.794749         1.950278
 C         0.531351         0.943177         3.165317
 C        -0.289601        -0.000196         2.218288
 C        -1.322119         0.928294         1.338045
 C        -0.509217         0.563803         0.013273
 C         0.634095         0.442698         1.038387
 O         1.786566        -0.190924         0.729894
 C        -0.764960         2.296790         1.636273
 H         1.675250         3.175454         0.967025
 H         1.528156         0.436240         3.417162
 H         0.036913         1.420994         4.007986
 H        -0.529768        -0.940711         2.611240
 H        -2.362742         0.856449         1.325467
 H        -0.939768        -0.346262        -0.437793
 H        -0.670090         1.430361        -0.721407
 H         1.656348        -1.216237         0.766232
 H        -0.710693         2.856681         0.678790
 H        -1.373344         2.842640         2.339103
