19
Iteration:  1818charge 0 multiplicity 1
 O         1.696134         2.871036         1.824387
 C         0.644583         1.820244         1.859857
 C         0.487133         0.949004         3.137709
 C        -0.417727         0.058980         2.264087
 C        -1.296143         0.919445         1.290355
 C        -0.497016         0.408016         0.010956
 C         0.594895         0.410356         1.061780
 O         1.867795        -0.153863         0.778741
 C        -0.786741         2.302859         1.701418
 H         2.137148         2.780529         0.942201
 H         1.326273         0.365578         3.407920
 H        -0.015282         1.464724         4.014977
 H        -0.754678        -0.948616         2.307314
 H        -2.347439         0.808093         1.399430
 H        -0.806541        -0.649774        -0.366504
 H        -0.517636         1.072207        -0.886318
 H         1.740812        -1.017671         0.477963
 H        -0.902885         3.101307         0.949749
 H        -1.042575         2.525508         2.710778
