19
Iteration:  1021charge 0 multiplicity 1
 O         1.799001         2.607789         1.679049
 C         0.611328         1.818863         1.854734
 C         0.485514         0.840757         3.178164
 C        -0.298825         0.005444         2.161228
 C        -1.399802         0.921474         1.303101
 C        -0.582199         0.594335        -0.018478
 C         0.600255         0.488764         1.001666
 O         1.889706        -0.105995         0.910983
 C        -0.827497         2.347788         1.790659
 H         1.816507         2.972507         0.772495
 H         1.379372         0.355654         3.218200
 H        -0.040280         1.184959         4.042940
 H        -0.575392        -0.961077         2.278602
 H        -2.418416         0.723961         1.317256
 H        -1.095796        -0.316676        -0.329176
 H        -0.593491         1.249781        -0.906990
 H         2.490189         0.258468         1.584816
 H        -1.058480         3.199751         1.137151
 H        -1.396931         2.483540         2.706510
