19
Iteration:  2169charge 0 multiplicity 1
 O         1.750119         2.548682         1.946206
 C         0.623594         1.834305         1.844201
 C         0.347133         1.058200         3.173495
 C        -0.262062        -0.001703         2.362061
 C        -1.354372         0.931999         1.399022
 C        -0.595399         0.392862         0.092604
 C         0.612988         0.383794         1.094442
 O         1.878993         0.007388         0.620732
 C        -0.782103         2.288986         1.348329
 H         2.075435         3.084179         1.191776
 H         1.338607         0.642260         3.687804
 H        -0.239191         1.658252         3.947395
 H        -0.684780        -0.993566         2.785229
 H        -2.409626         0.897176         1.529922
 H        -1.004113        -0.600993        -0.227652
 H        -0.388310         0.994290        -0.731462
 H         2.642853         0.498561         1.147728
 H        -0.685220         2.675335         0.260567
 H        -1.204368         2.970800         2.083740
