19
Iteration:  4793charge 0 multiplicity 1
 O         1.754764         2.646004         1.586632
 C         0.586157         1.904959         1.906757
 C         0.359248         1.213009         3.215517
 C        -0.327686         0.149451         2.269337
 C        -1.356915         0.872374         1.251629
 C        -0.507290         0.197092         0.111732
 C         0.675803         0.389045         1.172545
 O         1.854989        -0.185003         0.839432
 C        -0.802143         2.303342         1.462244
 H         1.712877         3.491968         2.077643
 H         1.317999         0.848754         3.696162
 H        -0.181535         1.668317         4.012542
 H        -0.652090        -0.878137         2.653442
 H        -2.391478         0.639582         1.426632
 H        -0.744858        -0.930157         0.079974
 H        -0.385776         0.872476        -0.798498
 H         2.719731         0.293362         1.095265
 H        -0.826121         2.838637         0.496193
 H        -1.265746         2.812439         2.270881
