19
Iteration:  2148charge 0 multiplicity 1
 O         1.719004         2.762131         1.910256
 C         0.677284         1.801049         1.902057
 C         0.395130         1.043408         3.172995
 C        -0.320387         0.060030         2.209157
 C        -1.342197         0.831337         1.354867
 C        -0.582321         0.375758         0.097018
 C         0.615047         0.393028         1.016988
 O         1.831193        -0.202978         0.701227
 C        -0.720529         2.374379         1.499030
 H         1.425712         3.565407         1.456611
 H         1.454206         0.579459         3.486587
 H         0.043098         1.603235         4.089267
 H        -0.681801        -0.997769         2.366000
 H        -2.394890         0.857862         1.322511
 H        -0.696230        -0.759490        -0.044094
 H        -0.719657         0.972960        -0.806045
 H         2.508448         0.211394         1.187859
 H        -0.610553         2.810733         0.432027
 H        -1.210277         3.046227         2.216550
