19
Iteration:  2393charge 0 multiplicity 1
 O         1.750781         2.548881         1.603816
 C         0.594621         1.823698         1.876208
 C         0.409378         1.020939         3.271682
 C        -0.333969         0.035450         2.336210
 C        -1.380150         0.865083         1.302064
 C        -0.489006         0.539944        -0.003647
 C         0.597273         0.387424         1.166305
 O         1.894001        -0.081466         0.905885
 C        -0.790876         2.309036         1.529276
 H         1.757987         3.023410         0.755989
 H         1.269371         0.404307         3.444481
 H        -0.040905         1.601652         4.135005
 H        -0.607761        -1.055768         2.548097
 H        -2.474860         0.714698         1.334147
 H        -0.580150        -0.402178        -0.460003
 H        -0.512408         1.289786        -0.685728
 H         2.276736         0.802451         0.800064
 H        -0.713012         2.768121         0.524411
 H        -1.390893         2.977316         2.233549
