19
Iteration:  3142charge 0 multiplicity 1
 O         1.731426         2.704830         1.821487
 C         0.573122         1.835047         1.787746
 C         0.472906         1.077951         3.161286
 C        -0.271804         0.052443         2.338012
 C        -1.283298         0.909115         1.331112
 C        -0.567807         0.411451         0.056455
 C         0.619250         0.455215         1.032034
 O         1.812849        -0.301649         0.837116
 C        -0.781935         2.332824         1.500222
 H         1.623845         3.450126         1.183433
 H         1.469440         0.789083         3.535586
 H        -0.104193         1.520283         4.030195
 H        -0.659658        -0.913139         2.637778
 H        -2.427473         0.702192         1.379688
 H        -0.727196        -0.621796        -0.324592
 H        -0.483134         1.148887        -0.737640
 H         2.530605         0.415229         1.031937
 H        -1.033431         2.762026         0.489563
 H        -1.434401         2.788614         2.272483
