19
Iteration:  3382
 O         1.707578         2.695638         1.621447
 C         0.587319         1.866231         1.926716
 C         0.453548         0.953828         3.183442
 C        -0.372875         0.107445         2.247890
 C        -1.281245         0.894545         1.327875
 C        -0.542126         0.451516         0.112017
 C         0.631923         0.348618         1.053858
 O         1.850897        -0.251993         0.893392
 C        -0.756467         2.413595         1.533255
 H         1.521762         3.366388         0.958982
 H         1.375469         0.432174         3.431188
 H        -0.123827         1.470945         4.040039
 H        -0.526846        -0.982223         2.364186
 H        -2.423973         0.777616         1.487189
 H        -0.795978        -0.577505        -0.326284
 H        -0.398915         1.228891        -0.754342
 H         2.399319         0.329131         1.344552
 H        -0.716544         3.113666         0.658495
 H        -1.300574         2.696127         2.453189
