19
Iteration:  4360
 O         1.729993         2.831825         1.743022
 C         0.596556         1.971318         1.820351
 C         0.393941         1.067105         3.178851
 C        -0.171964         0.043961         2.244446
 C        -1.339203         0.908437         1.335699
 C        -0.548885         0.221431         0.165003
 C         0.641666         0.409031         1.086914
 O         1.752135        -0.355249         0.900339
 C        -0.773955         2.373961         1.358900
 H         1.830474         3.577986         2.341513
 H         1.464768         1.096239         3.323881
 H        -0.186740         1.473753         3.969262
 H        -0.511108        -1.025294         2.614631
 H        -2.427491         0.779580         1.328826
 H        -0.926032        -0.875379         0.019533
 H        -0.305607         0.672810        -0.834896
 H         2.489958         0.382062         0.742035
 H        -0.836366         2.737906         0.353353
 H        -1.300462         2.995815         2.081285
