19
Iteration:   837
 O         1.819393         2.548159         1.914001
 C         0.576032         1.832391         1.906069
 C         0.443891         0.993931         3.139269
 C        -0.295225         0.004346         2.240280
 C        -1.333529         0.880192         1.338320
 C        -0.626933         0.515988         0.110305
 C         0.594000         0.496471         1.013964
 O         1.878870        -0.093993         0.769884
 C        -0.823091         2.333957         1.531622
 H         1.896388         3.131545         1.124419
 H         1.360326         0.489537         3.353992
 H        -0.052657         1.442354         3.979646
 H        -0.500375        -1.032956         2.486722
 H        -2.409095         0.782523         1.481857
 H        -0.755050        -0.495586        -0.215372
 H        -0.581283         1.125955        -0.718222
 H         2.226397         0.274946        -0.135094
 H        -0.849067         2.812740         0.578670
 H        -1.340927         2.900970         2.291099
