19
Iteration:   871charge 0 multiplicity 1
 O         1.664890         2.731585         1.663367
 C         0.650540         1.760832         1.931979
 C         0.434861         0.848632         3.191703
 C        -0.407544         0.005132         2.188102
 C        -1.309657         0.937278         1.263248
 C        -0.584912         0.570382         0.004627
 C         0.603619         0.465555         1.028096
 O         1.935578        -0.052964         0.902584
 C        -0.719027         2.328553         1.752953
 H         1.933366         2.556525         0.734602
 H         1.265127         0.266175         3.626012
 H        -0.061627         1.264677         4.029298
 H        -0.602505        -1.015291         2.441182
 H        -2.308034         0.897831         1.363978
 H        -0.768523        -0.449916        -0.262712
 H        -0.477792         1.198972        -0.778568
 H         1.951253        -0.867111         0.246479
 H        -0.733338         3.125471         1.086098
 H        -1.232618         2.570983         2.649606
