19
Iteration:  2667charge 0 multiplicity 1
 O         1.650778         2.886589         1.625951
 C         0.656080         1.849346         1.928059
 C         0.435984         1.009969         3.175260
 C        -0.359065         0.036297         2.265150
 C        -1.346733         0.927476         1.233264
 C        -0.493715         0.372604         0.052575
 C         0.622776         0.355975         1.110065
 O         1.879136        -0.166923         0.910837
 C        -0.786285         2.315210         1.587206
 H         2.486320         2.583521         2.006214
 H         1.324379         0.411425         3.423449
 H         0.058446         1.553235         4.073678
 H        -0.510095        -1.081958         2.620022
 H        -2.431801         0.923016         1.285693
 H        -0.736275        -0.738322        -0.119961
 H        -0.360605         0.992108        -0.920454
 H         1.641718        -0.773956         0.154323
 H        -0.788610         2.930701         0.689007
 H        -1.327049         2.686699         2.495705
