19
Iteration:  2807
 O         1.658660         2.854324         1.710060
 C         0.685332         1.887728         1.907034
 C         0.438697         1.023119         3.299352
 C        -0.360708         0.170267         2.230819
 C        -1.291683         0.914590         1.260746
 C        -0.439148         0.324617         0.023870
 C         0.701466         0.448662         1.076290
 O         1.806905        -0.318561         0.851116
 C        -0.881330         2.306893         1.576315
 H         2.497367         2.492809         1.361411
 H         1.286327         0.586282         3.831651
 H        -0.345983         1.499790         3.942306
 H        -0.488703        -0.852139         2.683254
 H        -2.441278         0.692080         1.118810
 H        -0.683270        -0.708449        -0.038933
 H        -0.479233         0.850341        -0.919644
 H         1.809228        -0.359518        -0.185604
 H        -1.002965         2.973212         0.738264
 H        -1.246273         2.740758         2.516780
