19
Iteration:   901charge 0 multiplicity 1
 O         1.627663         2.753795         1.693725
 C         0.633027         1.838966         1.882358
 C         0.522285         0.876547         3.160934
 C        -0.367016        -0.002811         2.221981
 C        -1.326022         0.877045         1.311755
 C        -0.480915         0.634951         0.013337
 C         0.614415         0.453509         1.037559
 O         1.847938        -0.174802         0.755842
 C        -0.837921         2.372065         1.714934
 H         2.423621         2.290651         2.044113
 H         1.442980         0.394976         3.438790
 H         0.118099         1.275727         4.093712
 H        -0.526334        -1.023058         2.488122
 H        -2.447359         0.672557         1.433624
 H        -0.558970        -0.351871        -0.463808
 H        -0.209767         1.477159        -0.678308
 H         1.930247        -0.985185         1.267552
 H        -0.906885         3.155148         0.929341
 H        -1.390386         2.627954         2.642944
