19
Iteration:  2975charge 0 multiplicity 1
 O         1.746422         2.759254         1.816228
 C         0.620928         1.860118         1.797361
 C         0.562095         1.056418         3.101427
 C        -0.390912         0.112233         2.233568
 C        -1.319292         0.892189         1.277764
 C        -0.483880         0.391521         0.097906
 C         0.564491         0.387398         1.114892
 O         1.783119        -0.258705         0.797320
 C        -0.841939         2.305178         1.580905
 H         1.935745         3.277784         1.010624
 H         1.484694         0.575666         3.496357
 H         0.178034         1.568135         3.996843
 H        -0.695776        -0.841429         2.657238
 H        -2.314304         0.685432         1.387753
 H        -0.808274        -0.570171        -0.366696
 H        -0.303710         1.144829        -0.684325
 H         2.454291        -0.161085         1.415246
 H        -1.006843         3.085820         0.812590
 H        -1.352375         2.553077         2.524275
