19
Iteration:  4515
 O         1.735677         2.885325         1.686692
 C         0.681069         1.857942         1.784758
 C         0.347765         1.214374         3.165339
 C        -0.287007         0.029946         2.333556
 C        -1.290029         0.867304         1.342471
 C        -0.543626         0.253993         0.077661
 C         0.619961         0.367725         1.062018
 O         1.792707        -0.345968         0.878901
 C        -0.763570         2.279277         1.433616
 H         1.759330         3.467856         2.487219
 H         1.253520         0.973648         3.651995
 H        -0.323449         1.796100         3.803642
 H        -0.692379        -0.873755         2.790017
 H        -2.380546         0.732062         1.418468
 H        -0.808052        -0.884900         0.138728
 H        -0.406102         0.984360        -0.677920
 H         2.528743         0.350797         0.789332
 H        -0.778232         2.785040         0.497730
 H        -1.195382         2.973467         2.164373
