19
Iteration:  4343charge 0 multiplicity 1
 O         1.660104         2.810060         1.705818
 C         0.622192         1.858667         1.816187
 C         0.514537         1.101357         3.186561
 C        -0.329785         0.140636         2.300293
 C        -1.332596         0.879820         1.295647
 C        -0.532680         0.312003         0.141232
 C         0.671357         0.462365         1.108011
 O         1.808454        -0.378440         0.910199
 C        -0.800492         2.333178         1.362078
 H         1.548531         3.451754         2.419523
 H         1.395441         0.445842         3.464332
 H         0.058053         1.598294         4.129835
 H        -0.505689        -0.853274         2.546997
 H        -2.396257         0.704742         1.436839
 H        -0.661056        -0.721176        -0.093014
 H        -0.680035         0.696428        -0.915432
 H         2.653450         0.211570         0.754877
 H        -0.746824         2.866292         0.334374
 H        -1.330136         3.023014         2.058678
