19
Iteration:   847
 O         1.816025         2.602622         1.814995
 C         0.611574         1.823741         1.898945
 C         0.419879         0.904037         3.172035
 C        -0.359270         0.020010         2.146923
 C        -1.380399         0.898203         1.428764
 C        -0.555729         0.520563         0.090406
 C         0.603379         0.451323         1.005561
 O         1.890036        -0.034422         0.845537
 C        -0.787003         2.327460         1.576614
 H         1.843918         2.949011         0.893674
 H         1.381427         0.593447         3.500278
 H        -0.174781         1.165336         4.039723
 H        -0.439493        -1.051573         2.293189
 H        -2.537640         0.759516         1.457232
 H        -0.991546        -0.435257        -0.180476
 H        -0.491022         1.181203        -0.751400
 H         2.234864        -0.045819        -0.090633
 H        -0.877264         2.880996         0.630203
 H        -1.283573         2.958938         2.336904
