19
Iteration:  3180
 O         1.768108         2.766887         1.835165
 C         0.679646         1.837318         1.829718
 C         0.422331         0.981848         3.174182
 C        -0.343875         0.037514         2.265179
 C        -1.325856         0.946633         1.310282
 C        -0.608379         0.284995         0.123388
 C         0.591535         0.386348         1.017124
 O         1.841206        -0.147969         0.865841
 C        -0.741383         2.332610         1.480101
 H         1.714931         3.242077         0.995795
 H         1.401926         0.697943         3.573294
 H        -0.161735         1.391876         3.986660
 H        -0.792194        -0.930762         2.570781
 H        -2.359241         1.029645         1.412086
 H        -0.931950        -0.755770         0.022602
 H        -0.538566         0.821753        -0.907051
 H         2.509837         0.480249         0.400823
 H        -0.887327         2.915032         0.561562
 H        -1.203947         2.903945         2.290976
