19
Iteration:  4409
 O         1.736340         2.599731         1.498156
 C         0.601480         1.821661         1.861959
 C         0.378387         1.119792         3.200112
 C        -0.384988         0.056447         2.335012
 C        -1.312238         0.890206         1.335838
 C        -0.425965         0.349873         0.118913
 C         0.613870         0.375274         1.199495
 O         1.889976        -0.143431         0.908357
 C        -0.831031         2.359252         1.465203
 H         1.839983         3.432503         2.012652
 H         1.346042         0.729514         3.562891
 H        -0.226848         1.687609         3.942106
 H        -0.629508        -0.864252         2.769733
 H        -2.420262         0.714883         1.215210
 H        -0.725131        -0.631205        -0.176484
 H        -0.390393         0.909679        -0.803618
 H         2.243043         0.699646         0.696013
 H        -0.621360         2.831895         0.473480
 H        -1.522540         2.898009         2.117981
