19
Iteration:  4703charge 0 multiplicity 1
 O         1.628808         2.891556         1.650606
 C         0.679600         1.854845         1.842458
 C         0.410347         1.173075         3.242543
 C        -0.331064         0.148032         2.337272
 C        -1.293541         0.821537         1.258098
 C        -0.474657         0.279739         0.073669
 C         0.724198         0.483954         1.128791
 O         1.766898        -0.349736         0.966100
 C        -0.839683         2.271211         1.385652
 H         2.531364         2.571129         1.766991
 H         1.252885         0.607006         3.639939
 H        -0.096486         1.838014         4.001893
 H        -0.493912        -0.821822         2.695847
 H        -2.359689         0.657807         1.419859
 H        -0.724623        -0.878872         0.013416
 H        -0.473713         0.953696        -0.831561
 H         2.312218        -0.088040         0.148738
 H        -0.869210         2.727656         0.397604
 H        -1.333708         2.770604         2.176551
