19
Iteration:  3413
 O         1.861456         2.630395         1.771319
 C         0.651959         1.767571         1.832656
 C         0.387890         1.115638         3.221729
 C        -0.429366         0.103234         2.285666
 C        -1.392296         0.802490         1.343827
 C        -0.544853         0.415797         0.130177
 C         0.610708         0.399120         1.020994
 O         1.852120        -0.133640         0.773126
 C        -0.801727         2.328425         1.546698
 H         2.051570         2.923444         0.848232
 H         1.184888         0.765383         3.845822
 H        -0.165217         1.791019         3.786679
 H        -0.385629        -0.966709         2.472510
 H        -2.545226         0.664528         1.417751
 H        -0.716679        -0.662927        -0.172762
 H        -0.441985         0.999369        -0.820862
 H         2.445859         0.724491         0.804067
 H        -0.855792         3.019532         0.679440
 H        -1.190682         2.987397         2.365764
