19
Iteration:  1169charge 0 multiplicity 1
 O         1.785356         2.642883         1.554264
 C         0.634870         1.790301         1.934203
 C         0.418055         0.956527         3.224755
 C        -0.308073         0.018989         2.164562
 C        -1.368381         0.940139         1.355893
 C        -0.466226         0.600803        -0.091213
 C         0.662379         0.480432         1.048873
 O         1.830279        -0.196267         0.836396
 C        -0.901564         2.227618         1.821711
 H         1.515946         3.459681         1.108784
 H         1.254792         0.426139         3.668452
 H        -0.048389         1.356538         4.085010
 H        -0.641947        -1.066225         2.448558
 H        -2.470201         0.764566         1.290043
 H        -0.881943        -0.263118        -0.610387
 H        -0.422263         1.515231        -0.644826
 H         2.556772         0.241101         1.352604
 H        -1.018447         3.108953         1.193692
 H        -1.157654         2.515045         2.857818
