19
Iteration:  1454
 O         1.779810         2.668693         1.730837
 C         0.687002         1.847348         1.871406
 C         0.382789         0.992359         3.131171
 C        -0.296830         0.016593         2.140164
 C        -1.345295         0.940532         1.354816
 C        -0.539337         0.538175         0.037091
 C         0.606485         0.475264         1.033218
 O         1.907230        -0.217207         0.948560
 C        -0.850118         2.301024         1.639930
 H         1.500061         3.503212         1.274145
 H         1.251175         0.519451         3.534663
 H        -0.268796         1.384876         3.944085
 H        -0.531114        -1.022340         2.247334
 H        -2.433849         0.825987         1.564500
 H        -0.798279        -0.449204        -0.272449
 H        -0.600254         1.072495        -0.836434
 H         1.937596        -0.676876         0.147611
 H        -0.971165         3.163774         0.907933
 H        -1.218001         2.509485         2.645913
