19
Iteration:  1785
 O         1.608366         2.795497         1.669354
 C         0.601858         1.808521         1.892599
 C         0.567161         0.910997         3.225077
 C        -0.282747         0.023960         2.195651
 C        -1.293147         0.879444         1.333969
 C        -0.557211         0.694655        -0.027922
 C         0.655996         0.456552         1.085278
 O         1.857251        -0.234863         0.913265
 C        -0.842410         2.279501         1.635804
 H         2.162487         2.170945         1.175328
 H         1.495649         0.484194         3.547714
 H         0.000965         1.359300         4.103936
 H        -0.432115        -1.020747         2.064404
 H        -2.354573         0.615801         1.436414
 H        -0.803707        -0.195450        -0.688272
 H        -0.604354         1.670239        -0.494762
 H         1.598502        -1.201902         0.696767
 H        -0.878246         3.034666         0.831429
 H        -1.242963         2.868425         2.439764
