19
Iteration:  1446charge 0 multiplicity 1
 O         1.774618         2.661748         1.816157
 C         0.648366         1.837426         1.845126
 C         0.411978         0.974499         3.093845
 C        -0.286441         0.052353         2.178077
 C        -1.373384         0.928993         1.357603
 C        -0.579920         0.471571         0.095190
 C         0.625654         0.415592         1.004154
 O         1.870364        -0.152053         0.901799
 C        -0.806998         2.319422         1.580054
 H         1.722225         3.621029         1.616221
 H         1.342451         0.476941         3.491449
 H        -0.032714         1.415521         3.983861
 H        -0.443694        -0.995028         2.345890
 H        -2.564881         0.940778         1.320255
 H        -0.675154        -0.641458        -0.162229
 H        -0.377555         1.181237        -0.811369
 H         1.871355        -0.688075         0.154383
 H        -1.070959         3.058017         0.757409
 H        -1.171251         2.865872         2.489848
