19
Iteration:  1117charge 0 multiplicity 1
 O         1.797334         2.657718         2.111421
 C         0.610339         1.895323         1.946096
 C         0.552085         0.980502         3.113405
 C        -0.334537         0.083506         2.251049
 C        -1.357339         0.904882         1.315064
 C        -0.669148         0.328386         0.067481
 C         0.566845         0.384471         0.978689
 O         1.821729        -0.116005         0.662566
 C        -0.763832         2.341300         1.461201
 H         1.989644         3.390327         1.503184
 H         1.474906         0.443080         3.260886
 H         0.090650         1.544691         4.047799
 H        -0.550055        -0.888660         2.384097
 H        -2.347634         0.602180         1.553411
 H        -0.945087        -0.724102        -0.058216
 H        -0.739507         0.920634        -0.906973
 H         2.220932         0.529349         0.145297
 H        -0.538992         2.855418         0.471407
 H        -1.228418         3.024663         2.146412
