19
Iteration:  2539
 O         1.738972         2.447053         1.596198
 C         0.597470         1.811868         1.871151
 C         0.485228         1.024129         3.177501
 C        -0.344027         0.034683         2.288878
 C        -1.347641         0.889922         1.332110
 C        -0.534347         0.491851         0.136079
 C         0.589675         0.486419         1.072658
 O         1.878407        -0.015447         0.964978
 C        -0.842696         2.291273         1.446401
 H         1.541148         3.391938         1.421558
 H         1.378444         0.331273         3.292524
 H         0.331547         1.623946         4.079938
 H        -0.543419        -1.068323         2.604304
 H        -2.421013         0.623803         1.320419
 H        -0.726569        -0.473622        -0.310658
 H        -0.505300         1.203119        -0.620875
 H         2.668152         0.682158         0.995955
 H        -0.928693         2.967776         0.561815
 H        -1.332189         2.831358         2.294936
