19
Iteration:  1819charge 0 multiplicity 1
 O         1.698445         2.867770         1.827022
 C         0.650608         1.818774         1.863765
 C         0.481982         0.955139         3.148544
 C        -0.414902         0.065266         2.259235
 C        -1.298686         0.914669         1.283956
 C        -0.507274         0.396512         0.016568
 C         0.582187         0.407886         1.052233
 O         1.873576        -0.144165         0.776171
 C        -0.780270         2.303393         1.702604
 H         2.165376         2.828237         0.961600
 H         1.308482         0.372458         3.415648
 H        -0.012868         1.472907         4.008788
 H        -0.769617        -0.951201         2.280843
 H        -2.305291         0.790365         1.399941
 H        -0.835576        -0.607470        -0.353761
 H        -0.515104         1.023283        -0.858839
 H         1.747677        -1.039664         0.454748
 H        -0.866457         3.088010         0.935631
 H        -1.045091         2.509418         2.702999
