19
Iteration:  4078
 O         1.819954         2.769047         1.663574
 C         0.654625         1.903360         1.918100
 C         0.358809         1.049785         3.229696
 C        -0.389617         0.158824         2.292342
 C        -1.388920         0.833415         1.304158
 C        -0.558323         0.321447         0.095592
 C         0.632632         0.498604         1.080286
 O         1.850871        -0.229941         0.830898
 C        -0.758801         2.225248         1.384227
 H         2.079566         3.303569         2.426247
 H         1.294571         0.551512         3.417002
 H        -0.067063         1.507291         4.174622
 H        -0.541217        -0.909377         2.752435
 H        -2.468504         0.806264         1.533971
 H        -0.716092        -0.840700         0.194690
 H        -0.809688         0.689612        -0.895410
 H         2.711699         0.324990         0.783142
 H        -0.743919         2.707399         0.396165
 H        -1.490997         2.736714         2.158686
