19
Iteration:  4658
 O         1.552478         2.970751         1.711377
 C         0.648537         1.897317         1.758372
 C         0.464554         1.105070         3.169473
 C        -0.317846         0.174032         2.304869
 C        -1.291934         0.936128         1.363646
 C        -0.543709         0.310871         0.116026
 C         0.656470         0.359437         1.081252
 O         1.914301        -0.471497         0.992885
 C        -0.781982         2.329449         1.355479
 H         2.234090         2.751361         2.359318
 H         1.414180         0.746236         3.523899
 H        -0.219305         1.581790         3.912724
 H        -0.776987        -0.766513         2.531768
 H        -2.374529         0.594239         1.303501
 H        -0.575380        -0.874842         0.115096
 H        -0.564301         0.780999        -0.911052
 H         2.108817        -0.384242        -0.006894
 H        -0.937928         2.818189         0.406825
 H        -1.201826         2.813398         2.226665
