19
Iteration:  2079
 O         1.688439         2.753362         1.716769
 C         0.666541         1.803626         1.872029
 C         0.465754         0.905301         3.202607
 C        -0.293682        -0.018781         2.194508
 C        -1.342597         0.908899         1.321069
 C        -0.533474         0.593286        -0.009385
 C         0.619054         0.435883         1.081678
 O         1.833783        -0.214056         0.985870
 C        -0.806938         2.331743         1.566269
 H         1.633645         3.300441         0.918592
 H         1.214015         0.162776         3.535716
 H         0.141457         1.371414         4.190230
 H        -0.689056        -1.021904         2.441127
 H        -2.346590         0.461881         1.447449
 H        -0.736510        -0.233219        -0.612017
 H        -0.389085         1.462643        -0.602530
 H         2.245629        -0.116740         0.042026
 H        -0.971692         3.028581         0.670555
 H        -1.166842         2.824349         2.507260
