19
Iteration:  2307
 O         1.627667         2.905429         1.981833
 C         0.680934         1.877564         1.856340
 C         0.426704         1.099021         3.119752
 C        -0.295145         0.096508         2.335097
 C        -1.327044         0.889459         1.321650
 C        -0.500087         0.355745         0.065141
 C         0.645811         0.289039         1.085356
 O         1.826592        -0.427985         0.732203
 C        -0.767982         2.366534         1.458572
 H         1.487319         3.425560         1.173241
 H         1.444779         0.837775         3.371909
 H        -0.086441         1.601687         3.995912
 H        -0.485163        -1.008851         2.619530
 H        -2.415646         0.772772         1.384833
 H        -0.731380        -0.610451        -0.385045
 H        -0.578134         1.243092        -0.728666
 H         2.225321        -0.095902        -0.121845
 H        -0.769844         2.939384         0.577003
 H        -1.132007         2.951324         2.314127
