19
Iteration:  1078
 O         1.753632         2.756803         1.974653
 C         0.673376         1.855861         1.936411
 C         0.353082         1.008987         3.190206
 C        -0.260658         0.043822         2.133979
 C        -1.320109         0.869712         1.402019
 C        -0.578254         0.449080         0.065632
 C         0.661533         0.434652         1.014729
 O         1.796463        -0.318957         0.560877
 C        -0.756378         2.351705         1.614317
 H         1.627932         3.448760         1.291026
 H         1.142749         0.693891         3.858314
 H        -0.264980         1.480067         3.875866
 H        -0.608666        -1.008485         2.433248
 H        -2.387934         0.733892         1.465523
 H        -1.025064        -0.510154        -0.202994
 H        -0.665531         1.179519        -0.724146
 H         2.613769         0.318603         0.637125
 H        -0.626741         2.885672         0.673654
 H        -1.288392         2.987165         2.351937
