19
Iteration:  3185
 O         1.749440         2.730616         1.819387
 C         0.629588         1.860139         1.875469
 C         0.419387         0.997972         3.163636
 C        -0.361239         0.034206         2.284126
 C        -1.331171         0.951850         1.353650
 C        -0.548959         0.287419         0.073735
 C         0.620048         0.354901         1.025816
 O         1.844608        -0.143816         0.845621
 C        -0.744576         2.350784         1.452797
 H         1.686256         3.243984         0.977932
 H         1.394978         0.677501         3.609866
 H         0.052650         1.536733         4.136365
 H        -0.756856        -0.933862         2.562717
 H        -2.513874         0.866512         1.304770
 H        -0.973247        -0.738938        -0.013157
 H        -0.604669         0.835867        -0.816672
 H         2.407963         0.452743         0.377324
 H        -0.743944         3.100557         0.625028
 H        -1.063151         2.907164         2.366154
