19
Iteration:  3795charge 0 multiplicity 1
 O         1.719379         2.699245         1.663313
 C         0.609034         1.881394         1.866042
 C         0.345516         1.062686         3.220337
 C        -0.315930         0.062260         2.285779
 C        -1.337098         0.919578         1.327205
 C        -0.496687         0.385894         0.167178
 C         0.617624         0.403712         1.141622
 O         1.873719        -0.155752         0.843093
 C        -0.783904         2.288068         1.427897
 H         2.472927         2.184994         2.027037
 H         1.300761         0.675001         3.597651
 H        -0.104885         1.702627         3.987536
 H        -0.659737        -0.951729         2.490694
 H        -2.414889         0.812897         1.365875
 H        -0.847994        -0.636398        -0.136006
 H        -0.321872         1.043900        -0.744088
 H         2.044961         0.206063        -0.001680
 H        -0.756640         2.705190         0.462153
 H        -1.280900         2.911266         2.134063
