19
Iteration:  2818charge 0 multiplicity 1
 O         1.618628         2.840119         1.668435
 C         0.623321         1.866534         1.875441
 C         0.422827         1.053973         3.214390
 C        -0.324219         0.069865         2.292334
 C        -1.293052         0.923398         1.230852
 C        -0.438389         0.374150         0.075775
 C         0.577805         0.441772         1.105138
 O         1.835637        -0.272417         0.883190
 C        -0.748433         2.306733         1.579023
 H         2.400284         2.274166         1.690558
 H         1.353952         0.547597         3.539147
 H         0.059323         1.542771         4.146426
 H        -0.810871        -0.945971         2.405571
 H        -2.441405         0.710229         1.283821
 H        -0.804371        -0.597157        -0.122315
 H        -0.258457         0.868591        -0.867083
 H         2.139770        -0.229553        -0.086624
 H        -0.834210         3.034458         0.785950
 H        -1.328983         2.673155         2.442021
