19
Iteration:  2696charge 0 multiplicity 1
 O         1.659992         2.590322         1.599476
 C         0.575536         1.757638         1.876948
 C         0.368532         1.073059         3.151654
 C        -0.310619         0.017987         2.319210
 C        -1.299772         0.873537         1.347328
 C        -0.536691         0.577186         0.055840
 C         0.659836         0.379273         1.079143
 O         1.978629        -0.002549         0.906827
 C        -0.836840         2.301904         1.502056
 H         2.488738         2.225071         1.946699
 H         1.223642         0.609022         3.601611
 H        -0.095691         1.757414         3.886673
 H        -0.526969        -0.901988         2.797879
 H        -2.419933         0.619189         1.586780
 H        -0.823290        -0.309137        -0.468627
 H        -0.420314         1.336353        -0.701501
 H         1.683549        -0.877914         0.877926
 H        -0.865888         2.902270         0.591559
 H        -1.313402         2.864826         2.303724
