19
Iteration:  2993charge 0 multiplicity 1
 O         1.686937         2.745047         1.736359
 C         0.718054         1.802562         1.911811
 C         0.394994         1.086727         3.195495
 C        -0.332017         0.047404         2.349152
 C        -1.355314         0.861799         1.343120
 C        -0.535678         0.511221        -0.000447
 C         0.627827         0.418168         1.032463
 O         1.823844        -0.285137         0.770889
 C        -0.750344         2.293501         1.557387
 H         1.407590         3.211480         0.927634
 H         1.359481         0.618906         3.561920
 H        -0.043720         1.659853         4.030558
 H        -0.529163        -1.034630         2.684007
 H        -2.488581         0.802276         1.241053
 H        -0.712736        -0.472227        -0.323220
 H        -0.449659         1.210119        -0.832582
 H         2.418302        -0.075429         1.438996
 H        -0.790381         2.856523         0.635232
 H        -0.969552         2.991712         2.367295
