19
Iteration:  3684charge 0 multiplicity 1
 O         1.681959         2.763360         1.513723
 C         0.666480         1.843971         1.850534
 C         0.426954         0.946789         3.186672
 C        -0.258360         0.048758         2.189555
 C        -1.348194         1.002274         1.350981
 C        -0.493006         0.444552         0.025886
 C         0.592289         0.376960         1.096513
 O         1.882580        -0.349240         1.007277
 C        -0.898681         2.397133         1.628676
 H         1.841252         3.381801         2.234775
 H         1.430853         0.575844         3.561001
 H        -0.108870         1.525625         3.914621
 H        -0.405399        -0.979639         2.267278
 H        -2.455845         0.784781         1.409572
 H        -0.830857        -0.543356        -0.335573
 H        -0.274630         0.960407        -0.927528
 H         2.419675         0.475352         0.656489
 H        -1.017235         3.106422         0.870488
 H        -1.296901         2.742782         2.578383
