19
Iteration:   455
 O         1.633336         2.793538         1.748549
 C         0.627591         1.807641         1.915648
 C         0.465192         0.919159         3.192476
 C        -0.290729        -0.004086         2.235752
 C        -1.353221         0.858374         1.297005
 C        -0.513568         0.589538         0.031596
 C         0.632918         0.453116         1.025481
 O         1.839389        -0.227458         0.754056
 C        -0.785373         2.338914         1.693870
 H         2.394067         2.590187         2.329014
 H         1.418823         0.509068         3.497008
 H        -0.102573         1.356302         4.063474
 H        -0.569657        -1.163013         2.297194
 H        -2.373165         0.777006         1.388404
 H        -0.591805        -0.408256        -0.358884
 H        -0.468703         1.375334        -0.652447
 H         1.901721        -0.116901        -0.179403
 H        -0.775451         2.970327         0.843726
 H        -1.209773         2.893030         2.542568
