19
Iteration:   710charge 0 multiplicity 1
 O         1.726611         2.618271         1.733280
 C         0.615117         1.812741         1.910710
 C         0.441693         0.896716         3.215794
 C        -0.274092        -0.020093         2.167442
 C        -1.357683         0.939020         1.324575
 C        -0.602216         0.491500         0.036232
 C         0.583519         0.491956         1.062767
 O         1.848939        -0.124998         0.821308
 C        -0.726777         2.360954         1.648167
 H         1.804487         3.076449         0.885400
 H         1.461771         0.451768         3.453976
 H         0.126375         1.309959         4.149371
 H        -0.569507        -1.004173         2.285635
 H        -2.470320         0.669121         1.439220
 H        -0.943048        -0.497130        -0.274368
 H        -0.597825         1.259755        -0.804601
 H         2.504740         0.690131         0.759503
 H        -0.830949         3.147109         0.837723
 H        -1.264069         2.714982         2.525158
