19
Iteration:  3171charge 0 multiplicity 1
 O         1.785593         2.789267         1.850953
 C         0.699538         1.815400         1.800519
 C         0.418790         1.009695         3.145665
 C        -0.293104         0.091838         2.198624
 C        -1.346551         0.920800         1.300284
 C        -0.703537         0.316285         0.126191
 C         0.584563         0.451011         1.073955
 O         1.862119        -0.213404         0.887241
 C        -0.718928         2.310899         1.520078
 H         1.777628         3.331117         1.051816
 H         1.317112         0.406022         3.513187
 H        -0.361025         1.464603         3.802239
 H        -0.534379        -0.947196         2.411846
 H        -2.423993         0.793739         1.553840
 H        -0.807476        -0.783432         0.011852
 H        -0.711638         0.747818        -0.919375
 H         2.448871         0.635553         0.602356
 H        -0.820085         2.653263         0.517253
 H        -1.346599         2.883107         2.185177
