19
Iteration:  3599
 O         1.883969         2.570611         1.731236
 C         0.679221         1.778364         1.872055
 C         0.287461         1.082963         3.228595
 C        -0.402667         0.091888         2.356018
 C        -1.379622         0.843501         1.390223
 C        -0.517535         0.364529         0.141828
 C         0.622485         0.452757         1.062271
 O         1.849032        -0.055885         0.643335
 C        -0.784763         2.288034         1.478861
 H         1.502529         3.486224         1.750131
 H         1.204272         0.759070         3.815037
 H        -0.284813         1.793799         3.843822
 H        -0.815883        -0.869010         2.648324
 H        -2.472709         0.599584         1.321753
 H        -0.604672        -0.701173        -0.103455
 H        -0.440611         0.925109        -0.744484
 H         2.565712         0.438110         1.001354
 H        -0.652183         2.787662         0.504252
 H        -1.194198         3.101212         2.121564
