19
Iteration:  2286charge 0 multiplicity 1
 O         1.672501         2.942627         1.912008
 C         0.658957         1.987970         1.925649
 C         0.461261         1.084283         3.162364
 C        -0.262305         0.149414         2.167169
 C        -1.290757         0.930403         1.286038
 C        -0.461018         0.321942         0.017300
 C         0.690411         0.375533         0.969568
 O         1.760545        -0.493792         0.834987
 C        -0.819950         2.287481         1.621184
 H         1.374792         3.604991         1.250940
 H         1.403079         0.756576         3.607011
 H        -0.094114         1.435949         4.042300
 H        -0.805434        -0.879503         2.416528
 H        -2.328599         0.656326         1.276422
 H        -1.041125        -0.609133         0.083210
 H        -0.333559         0.597915        -1.186966
 H         2.110244        -0.533718        -0.137358
 H        -1.037022         2.986889         0.861393
 H        -1.304117         2.550048         2.568199
