19
Iteration:  3165
 O         1.785729         2.775348         1.851749
 C         0.687756         1.845238         1.844450
 C         0.409240         1.041621         3.107296
 C        -0.279278         0.118347         2.154250
 C        -1.396845         0.881963         1.372642
 C        -0.720672         0.332443         0.070757
 C         0.634768         0.466836         1.069549
 O         1.866696        -0.248069         0.898007
 C        -0.724246         2.287965         1.501460
 H         1.770259         3.394355         1.103487
 H         1.106161         0.396194         3.611157
 H        -0.112169         1.637615         3.888411
 H        -0.305067        -0.976119         2.276807
 H        -2.442759         0.509720         1.545110
 H        -0.803115        -0.764136         0.034263
 H        -0.940020         0.810533        -0.899813
 H         2.407493         0.494303         0.814719
 H        -0.622218         2.789715         0.480055
 H        -1.236912         2.966706         2.227652
