19
Iteration:  2504charge 0 multiplicity 1
 O         1.736488         2.818046         1.767957
 C         0.707643         1.822149         1.894370
 C         0.332669         1.091823         3.157511
 C        -0.284814         0.050492         2.253946
 C        -1.321593         0.875585         1.309274
 C        -0.573189         0.345527         0.075384
 C         0.623273         0.410652         1.058015
 O         1.836185        -0.270447         0.821545
 C        -0.729832         2.324462         1.594451
 H         1.516554         3.198995         0.888114
 H         1.147516         0.661873         3.776616
 H        -0.247293         1.817999         3.804484
 H        -0.497173        -1.104158         2.521633
 H        -2.381235         0.738558         1.293655
 H        -0.928320        -0.652636        -0.122944
 H        -0.476024         0.947990        -0.830139
 H         2.497552         0.315234         0.284732
 H        -0.994658         3.045376         0.782867
 H        -1.258495         2.607270         2.574714
