19
Iteration:   967
 O         1.789492         2.665391         1.972839
 C         0.640713         1.788846         1.995855
 C         0.483367         0.932450         3.222957
 C        -0.358832         0.067671         2.275683
 C        -1.379497         0.962221         1.331493
 C        -0.519229         0.380090         0.057534
 C         0.578119         0.362642         1.071681
 O         1.809995        -0.123404         0.480945
 C        -0.738094         2.377846         1.488377
 H         1.419935         3.563715         2.087913
 H         1.332508         0.470578         3.622821
 H        -0.052583         1.436913         4.012158
 H        -0.678058        -0.903327         2.387517
 H        -2.419518         0.851041         1.456596
 H        -0.856361        -0.641041        -0.089381
 H        -0.555677         0.939665        -0.853271
 H         2.356124         0.687793         0.427992
 H        -0.651968         2.999785         0.606685
 H        -1.374278         2.843448         2.269889
