19
Iteration:  4259charge 0 multiplicity 1
 O         1.870231         2.621562         1.589344
 C         0.575777         1.772919         1.763621
 C         0.433535         1.093814         3.144250
 C        -0.398365         0.055837         2.341147
 C        -1.361993         0.929173         1.337779
 C        -0.521042         0.299961         0.088799
 C         0.572664         0.308992         1.099691
 O         1.877495        -0.027522         0.958981
 C        -0.795851         2.314603         1.460753
 H         1.922853         3.333997         2.276380
 H         1.365019         0.739868         3.647961
 H        -0.177557         1.513629         3.879934
 H        -0.858004        -0.880118         2.671922
 H        -2.502247         0.770066         1.266149
 H        -0.963267        -0.634911        -0.053846
 H        -0.409371         1.047274        -0.686522
 H         2.340344         0.881937         1.120213
 H        -0.860272         2.922689         0.523114
 H        -1.285512         2.877365         2.256011
