19
Iteration:  1173
 O         1.797074         2.634112         1.544090
 C         0.596105         1.840559         1.915269
 C         0.449704         0.927128         3.206154
 C        -0.333076         0.008842         2.218236
 C        -1.362852         0.930227         1.307762
 C        -0.451337         0.615080        -0.059855
 C         0.644952         0.466219         1.045753
 O         1.838553        -0.202937         0.839658
 C        -0.918984         2.237978         1.837602
 H         1.588681         3.499983         1.139060
 H         1.301576         0.446092         3.660522
 H        -0.038889         1.393864         4.143043
 H        -0.587485        -0.934074         2.368403
 H        -2.368486         0.639082         1.341128
 H        -0.847658        -0.182471        -0.691974
 H        -0.405341         1.585912        -0.653120
 H         2.585034         0.112802         1.350737
 H        -1.060786         3.157225         1.223864
 H        -1.242646         2.450831         2.833185
