19
Iteration:  3496
 O         1.708349         2.716204         1.752044
 C         0.616159         1.832984         1.840813
 C         0.450649         1.087298         3.207085
 C        -0.287176         0.110071         2.243157
 C        -1.363795         0.899307         1.303846
 C        -0.476553         0.428933         0.087524
 C         0.660846         0.383350         1.148730
 O         1.786566        -0.316083         0.799682
 C        -0.860962         2.334730         1.545409
 H         1.581578         3.167759         0.894182
 H         1.536635         0.656950         3.347759
 H        -0.172730         1.541235         4.086702
 H        -0.470924        -0.896991         2.643563
 H        -2.443185         0.751895         1.520462
 H        -0.630323        -0.518917        -0.426675
 H        -0.359648         1.288742        -0.614243
 H         2.619318         0.214798         0.543105
 H        -0.726857         3.022286         0.708974
 H        -1.142545         2.831006         2.468977
