19
Iteration:   180charge 0 multiplicity 1
 O         1.768188         2.668890         1.901301
 C         0.597700         1.839096         1.957622
 C         0.441013         0.929511         3.206618
 C        -0.286590        -0.016088         2.254631
 C        -1.399693         0.860897         1.309796
 C        -0.561002         0.487533         0.012735
 C         0.603212         0.440457         0.998138
 O         1.843180        -0.055316         0.714836
 C        -0.782592         2.364543         1.493854
 H         2.463662         2.256312         2.456170
 H         1.440782         0.402367         3.398717
 H        -0.065620         1.306486         4.136979
 H        -0.778760        -1.083308         2.534837
 H        -2.503615         0.729543         1.407598
 H        -0.609791        -0.604889        -0.302906
 H        -0.645579         1.156048        -0.850190
 H         2.291293         0.560699         0.167171
 H        -0.825099         3.027640         0.586774
 H        -1.309692         2.953993         2.321288
