19
Iteration:  1745charge 0 multiplicity 1
 O         1.689123         2.660055         1.705313
 C         0.638514         1.803230         1.893301
 C         0.466781         0.875479         3.216028
 C        -0.441645         0.033422         2.216606
 C        -1.361727         0.978744         1.314459
 C        -0.568151         0.379265         0.090721
 C         0.616837         0.450341         1.050959
 O         1.964500         0.029640         0.721932
 C        -0.753594         2.380221         1.631294
 H         2.423133         2.568709         2.342892
 H         1.429788         0.409929         3.458048
 H         0.093698         1.388503         4.102923
 H        -0.874639        -0.997363         2.375766
 H        -2.394004         0.968542         1.363774
 H        -0.846600        -0.647223        -0.007051
 H        -0.621859         0.890187        -0.892359
 H         1.986878        -0.889590         0.461801
 H        -1.005181         3.179747         0.907571
 H        -1.225236         2.687694         2.596832
