19
Iteration:  4269
 O         1.831838         2.531448         1.519313
 C         0.680586         1.809588         1.847415
 C         0.432206         1.097038         3.225175
 C        -0.386346         0.064550         2.341619
 C        -1.392144         0.856141         1.260472
 C        -0.565443         0.347552         0.076307
 C         0.554006         0.407901         1.120387
 O         1.862453         0.012814         1.013250
 C        -0.804209         2.288968         1.439380
 H         2.043960         3.146396         2.261036
 H         1.355099         0.572678         3.591575
 H        -0.052501         1.742059         3.932114
 H        -0.626762        -0.939825         2.599291
 H        -2.502019         0.612189         1.329645
 H        -0.808998        -0.547080        -0.412502
 H        -0.594076         0.996363        -0.829979
 H         2.482638         0.857031         0.980933
 H        -0.835716         2.940962         0.486613
 H        -1.207452         2.832011         2.322457
