19
Iteration:  3370charge 0 multiplicity 1
 O         1.710735         2.751172         1.663550
 C         0.657204         1.812573         1.850537
 C         0.550271         0.963198         3.195115
 C        -0.391123         0.059892         2.266945
 C        -1.376406         0.943128         1.327764
 C        -0.453880         0.442585         0.040121
 C         0.567772         0.407153         1.123468
 O         1.803753        -0.253715         0.919448
 C        -0.794017         2.332927         1.541999
 H         1.339766         3.463647         1.087128
 H         1.455992         0.358725         3.319808
 H         0.347001         1.346627         4.202341
 H        -0.789477        -0.940185         2.501571
 H        -2.486569         0.639962         1.158066
 H        -0.850979        -0.544332        -0.375712
 H        -0.413829         1.228664        -0.801030
 H         2.567947         0.305397         1.210075
 H        -0.735615         2.871971         0.554034
 H        -1.199700         3.156150         2.184975
