19
Iteration:  2808
 O         1.654775         2.852654         1.706357
 C         0.680490         1.889102         1.902149
 C         0.442537         1.020883         3.295930
 C        -0.362132         0.167352         2.231184
 C        -1.290192         0.919447         1.257822
 C        -0.431991         0.325635         0.029300
 C         0.686380         0.453349         1.078745
 O         1.808100        -0.315629         0.853478
 C        -0.873404         2.303780         1.576685
 H         2.484876         2.472072         1.389465
 H         1.296704         0.595819         3.848062
 H        -0.316147         1.491624         3.975482
 H        -0.514356        -0.873502         2.701461
 H        -2.401011         0.693048         1.117244
 H        -0.724140        -0.716255        -0.049634
 H        -0.467361         0.852973        -0.949436
 H         1.835034        -0.347702        -0.193503
 H        -0.993898         2.960047         0.734973
 H        -1.240588         2.723262         2.526619
