19
Iteration:  4039
 O         1.685067         2.816326         1.715189
 C         0.679897         1.891279         1.763837
 C         0.433533         1.130253         3.089604
 C        -0.352754         0.039149         2.355860
 C        -1.333869         0.909068         1.343951
 C        -0.578905         0.403372         0.106423
 C         0.638768         0.314244         1.037882
 O         1.905372        -0.356882         0.937835
 C        -0.777871         2.299669         1.476315
 H         1.473805         3.573711         2.318268
 H         1.351674         0.666603         3.526702
 H        -0.082869         1.583366         3.934435
 H        -0.698748        -0.922077         2.671932
 H        -2.404710         0.713304         1.361231
 H        -0.946905        -0.475424        -0.391895
 H        -0.415645         0.965273        -0.879031
 H         2.385887         0.315088         0.536150
 H        -0.978556         2.922174         0.590153
 H        -1.047019         2.843229         2.312234
