19
Iteration:  2650charge 0 multiplicity 1
 O         1.531490         2.914827         1.771174
 C         0.670243         1.884018         1.850037
 C         0.453251         0.980510         3.218486
 C        -0.314824         0.138517         2.192014
 C        -1.277538         0.969558         1.275423
 C        -0.550776         0.257145         0.085417
 C         0.668539         0.443847         0.981801
 O         1.851728        -0.298104         0.919107
 C        -0.714352         2.343196         1.572158
 H         2.430417         2.612516         1.616081
 H         1.388618         0.575482         3.669802
 H        -0.194715         1.372549         3.990458
 H        -0.673825        -0.827350         2.288809
 H        -2.325814         0.610414         1.296948
 H        -0.748896        -0.823158         0.065153
 H        -0.639501         0.645089        -0.883478
 H         1.859650        -0.743643         0.047279
 H        -0.750961         3.149392         0.787332
 H        -1.108764         2.762834         2.492961
