19
Iteration:  2767charge 0 multiplicity 1
 O         1.624363         2.776301         1.883606
 C         0.689578         1.765587         1.821231
 C         0.415551         1.100680         3.145054
 C        -0.248015         0.068166         2.349152
 C        -1.322978         0.888378         1.357092
 C        -0.546925         0.414795         0.061499
 C         0.609726         0.331261         1.079953
 O         1.877990        -0.162483         0.828961
 C        -0.801291         2.373493         1.405327
 H         2.282229         2.676460         1.185817
 H         1.324824         0.668905         3.629189
 H        -0.071864         1.618298         3.964722
 H        -0.709167        -0.942540         2.612121
 H        -2.341150         0.802636         1.525192
 H        -0.769477        -0.600228        -0.437492
 H        -0.493830         1.145903        -0.829885
 H         1.907377        -0.937193         0.318898
 H        -0.837576         2.781515         0.379321
 H        -1.291106         3.053410         2.145740
