19
Iteration:   483charge 0 multiplicity 1
 O         1.741285         2.726769         1.981110
 C         0.639294         1.849001         1.898813
 C         0.389165         1.015106         3.126347
 C        -0.242509         0.023061         2.216282
 C        -1.369450         0.858392         1.377366
 C        -0.682549         0.428969         0.112983
 C         0.606105         0.403878         0.942829
 O         1.880361        -0.141439         0.634511
 C        -0.747968         2.331340         1.554113
 H         2.520301         2.136933         2.132753
 H         1.428330         0.709339         3.454653
 H        -0.256760         1.330701         3.961203
 H        -0.482974        -0.959297         2.463551
 H        -2.543897         0.858368         1.601604
 H        -0.916010        -0.648349        -0.203380
 H        -0.783914         1.135790        -0.817673
 H         2.475943         0.619179         0.519405
 H        -0.733134         2.873456         0.534487
 H        -1.175603         3.051868         2.273573
