19
Iteration:  4328
 O         1.665066         2.807904         1.601357
 C         0.712716         1.834785         1.892838
 C         0.441417         1.150921         3.150149
 C        -0.407672         0.163225         2.301536
 C        -1.370271         0.865783         1.309289
 C        -0.524177         0.345680         0.026718
 C         0.622977         0.352776         1.061333
 O         1.856900        -0.287090         0.953295
 C        -0.733805         2.198142         1.491054
 H         1.665045         3.383716         2.402960
 H         1.338068         0.754682         3.540371
 H         0.115772         1.794096         3.971618
 H        -0.769402        -0.855810         2.704223
 H        -2.439879         0.759445         1.321699
 H        -0.799627        -0.733141        -0.078837
 H        -0.469769         1.107780        -0.675242
 H         2.550432         0.299343         0.757954
 H        -0.701742         2.781954         0.637273
 H        -1.150985         2.821360         2.256068
