19
Iteration:  1782charge 0 multiplicity 1
 O         1.606409         2.791197         1.655759
 C         0.635480         1.827955         1.895581
 C         0.533613         0.893769         3.233826
 C        -0.299570         0.007515         2.188487
 C        -1.284804         0.869508         1.360582
 C        -0.568475         0.682692        -0.053069
 C         0.653705         0.454545         1.060221
 O         1.851371        -0.212743         0.920670
 C        -0.800892         2.286825         1.637301
 H         2.268365         2.159444         1.263878
 H         1.581639         0.545474         3.622141
 H        -0.021621         1.390432         4.072160
 H        -0.469528        -1.106516         2.240523
 H        -2.483032         0.655320         1.483482
 H        -0.796301        -0.267640        -0.784222
 H        -0.630520         1.755211        -0.604798
 H         1.644538        -1.078184         0.745941
 H        -0.968123         3.026427         0.832609
 H        -1.292410         2.789891         2.548103
