19
Iteration:  1789
 O         1.608691         2.792719         1.683436
 C         0.581176         1.794842         1.901595
 C         0.575231         0.937815         3.208613
 C        -0.259572         0.044691         2.196466
 C        -1.313736         0.888266         1.306643
 C        -0.534035         0.691191         0.020277
 C         0.645370         0.467034         1.093668
 O         1.863435        -0.264606         0.900768
 C        -0.877329         2.278731         1.636810
 H         2.173184         2.280080         1.059101
 H         1.482350         0.371982         3.448859
 H         0.075348         1.288851         4.080928
 H        -0.443026        -1.043768         1.995924
 H        -2.313818         0.567378         1.377267
 H        -0.818362        -0.107707        -0.560382
 H        -0.519954         1.616906        -0.516107
 H         1.601594        -1.165238         0.681764
 H        -0.778650         2.982337         0.789505
 H        -1.234314         2.927677         2.449286
