19
Iteration:   885charge 0 multiplicity 1
 O         1.624536         2.759113         1.663907
 C         0.669610         1.761555         1.950290
 C         0.482873         0.889314         3.194775
 C        -0.372420         0.053636         2.169510
 C        -1.383395         1.001533         1.283612
 C        -0.439269         0.574097         0.040025
 C         0.620112         0.417855         1.061034
 O         1.905603        -0.099971         0.817507
 C        -0.814502         2.238133         1.766676
 H         2.317003         2.365367         1.099486
 H         1.450017         0.295332         3.258437
 H         0.037997         1.395867         4.104468
 H        -0.795767        -1.001882         2.258031
 H        -2.459001         0.791499         1.133500
 H        -0.924336        -0.298356        -0.473810
 H        -0.433559         1.336346        -0.829403
 H         1.821081        -1.012372         0.878152
 H        -0.950082         3.085324         1.054343
 H        -1.115257         2.664892         2.740910
