19
Iteration:  3747charge 0 multiplicity 1
 O         1.674421         2.755463         1.756947
 C         0.623869         1.833134         1.866194
 C         0.412318         1.076563         3.058480
 C        -0.309820         0.056455         2.295356
 C        -1.299129         0.903829         1.381116
 C        -0.600391         0.365699         0.110601
 C         0.605639         0.400217         1.077977
 O         1.924984        -0.234098         0.897499
 C        -0.796314         2.386940         1.398992
 H         2.474108         2.392361         2.205920
 H         1.361874         0.567806         3.418737
 H        -0.100871         1.482442         3.932764
 H        -0.649270        -0.909738         2.652219
 H        -2.391380         0.743197         1.574682
 H        -0.875181        -0.737498        -0.009681
 H        -0.700827         0.976742        -0.918878
 H         2.394266         0.535067         0.348518
 H        -0.833699         2.778086         0.320121
 H        -1.319004         2.947282         2.256354
