19
Iteration:  3633charge 0 multiplicity 1
 O         1.872462         2.549657         1.703971
 C         0.572851         1.815705         1.868571
 C         0.369369         1.046346         3.226015
 C        -0.292207         0.007041         2.298215
 C        -1.321111         0.923487         1.308851
 C        -0.591980         0.314597         0.159563
 C         0.593558         0.441407         1.073850
 O         1.896765        -0.069197         0.740238
 C        -0.839352         2.400209         1.475638
 H         1.673694         3.483669         1.956054
 H         1.338003         0.807064         3.649610
 H        -0.363196         1.465819         3.977263
 H        -0.860624        -0.864061         2.713534
 H        -2.384794         0.741505         1.222646
 H        -0.953315        -0.702591         0.058595
 H        -0.533786         0.773342        -0.801172
 H         2.415424         0.696173         0.922145
 H        -0.645812         2.911977         0.488106
 H        -1.292873         2.994449         2.285897
