19
Iteration:   441
 O         1.600246         2.859196         1.650934
 C         0.737054         1.802665         2.009872
 C         0.479584         0.897807         3.202595
 C        -0.358056         0.014068         2.120884
 C        -1.351126         0.943019         1.268971
 C        -0.447451         0.554915         0.019043
 C         0.613410         0.505529         1.083747
 O         1.770985        -0.186997         0.816444
 C        -0.747861         2.190604         1.746483
 H         2.445728         2.696730         2.123072
 H         1.371272         0.215903         3.435721
 H         0.037361         1.339966         4.126612
 H        -0.413806        -1.041872         2.541673
 H        -2.494008         0.709064         1.078409
 H        -0.872396        -0.404685        -0.499035
 H        -0.363323         1.290614        -0.897409
 H         1.889560        -0.591147        -0.126458
 H        -0.860506         3.120168         1.105483
 H        -1.206271         2.407913         2.729563
