19
Iteration:  2205charge 0 multiplicity 1
 O         1.883797         2.478146         1.729836
 C         0.662839         1.819866         1.879438
 C         0.243596         1.055024         3.231322
 C        -0.365103         0.085168         2.263958
 C        -1.357267         0.879150         1.322449
 C        -0.494798         0.289812         0.072287
 C         0.619980         0.529719         1.070527
 O         1.874177         0.075080         0.714104
 C        -0.814566         2.299202         1.597751
 H         1.890101         2.918077         0.845446
 H         1.063981         0.359277         3.699714
 H        -0.306012         1.652682         4.007533
 H        -0.654533        -0.847149         2.557720
 H        -2.486914         1.005780         1.387551
 H        -0.549375        -0.859275         0.113024
 H        -0.498240         0.604799        -1.047024
 H         2.580764         0.428435         1.406459
 H        -1.023397         3.045682         0.798375
 H        -1.487366         2.734990         2.386068
