19
Iteration:  2146charge 0 multiplicity 1
 O         1.723162         2.782927         1.898551
 C         0.692491         1.828114         1.912317
 C         0.397942         1.038232         3.177440
 C        -0.317960         0.049309         2.200674
 C        -1.350015         0.845628         1.339972
 C        -0.588904         0.375165         0.086612
 C         0.623449         0.403208         1.021371
 O         1.828051        -0.227530         0.708892
 C        -0.732092         2.356760         1.518544
 H         1.417392         3.597799         1.467753
 H         1.414317         0.521772         3.457863
 H         0.053740         1.627450         4.077121
 H        -0.687099        -1.040228         2.365018
 H        -2.407832         0.881791         1.279986
 H        -0.711171        -0.705317        -0.021631
 H        -0.694305         0.873295        -0.831436
 H         2.516412         0.199513         1.174188
 H        -0.597176         2.808264         0.473270
 H        -1.236704         2.977637         2.271838
