19
Iteration:  3062charge 0 multiplicity 1
 O         1.844388         2.551164         1.817295
 C         0.597601         1.831882         1.790455
 C         0.487512         1.045027         3.118246
 C        -0.341773         0.108677         2.289518
 C        -1.377800         0.851653         1.367631
 C        -0.613743         0.412404         0.075278
 C         0.619513         0.424496         1.053027
 O         1.871679        -0.085087         0.907660
 C        -0.850039         2.337527         1.426551
 H         1.826358         3.196897         1.058663
 H         1.456652         0.444963         3.241036
 H         0.083370         1.463301         4.084354
 H        -0.496875        -0.854474         2.807757
 H        -2.408749         0.629427         1.495026
 H        -1.052865        -0.578482        -0.138736
 H        -0.609869         1.015774        -0.784999
 H         2.510574         0.755546         0.925409
 H        -1.121063         2.868244         0.512738
 H        -1.310173         2.845262         2.270675
