19
Iteration:  4279
 O         1.786133         2.467138         1.458117
 C         0.600738         1.826309         1.896607
 C         0.388330         1.103921         3.237075
 C        -0.366764         0.126521         2.270799
 C        -1.387034         0.794853         1.277816
 C        -0.597802         0.395558         0.026497
 C         0.621965         0.518549         1.158189
 O         1.903491        -0.048726         1.024653
 C        -0.789155         2.277346         1.490003
 H         2.174491         2.956969         2.207975
 H         1.301253         0.532685         3.563079
 H         0.073659         1.678528         4.117794
 H        -0.442451        -0.855060         2.589524
 H        -2.493212         0.769022         1.405485
 H        -0.566646        -0.649167        -0.133905
 H        -0.505992         1.146884        -0.804030
 H         2.518539         0.792033         0.852825
 H        -0.786491         2.875497         0.479508
 H        -1.368410         2.921599         2.222417
