19
Iteration:  3494charge 0 multiplicity 1
 O         1.719964         2.720227         1.754710
 C         0.640264         1.843201         1.865535
 C         0.450826         1.087435         3.206386
 C        -0.288395         0.107704         2.255495
 C        -1.372684         0.890903         1.316410
 C        -0.504745         0.408931         0.066348
 C         0.663653         0.369131         1.141424
 O         1.794295        -0.307076         0.789504
 C        -0.868954         2.349163         1.539976
 H         1.563400         3.207923         0.904591
 H         1.424589         0.617632         3.467348
 H        -0.162781         1.599137         4.029293
 H        -0.486606        -0.916624         2.613743
 H        -2.389760         0.787780         1.462684
 H        -0.659106        -0.565479        -0.430179
 H        -0.333454         1.289523        -0.664946
 H         2.650754         0.237897         0.573060
 H        -0.745038         3.020108         0.708210
 H        -1.148901         2.814791         2.449410
