19
Iteration:  4866charge 0 multiplicity 1
 O         1.726066         2.811887         1.770010
 C         0.625075         1.902521         1.753050
 C         0.446075         1.152831         3.121167
 C        -0.332468         0.149539         2.242464
 C        -1.386241         0.860931         1.293886
 C        -0.517947         0.254395         0.126936
 C         0.659647         0.434380         1.127873
 O         1.844498        -0.300532         0.923380
 C        -0.861863         2.285272         1.474159
 H         2.230624         2.732358         0.934740
 H         1.366219         0.586639         3.346911
 H        -0.073394         1.789017         3.958747
 H        -0.562683        -0.812699         2.497997
 H        -2.422922         0.695544         1.484605
 H        -0.553462        -0.832962         0.120118
 H        -0.515629         0.745543        -0.775290
 H         2.611662         0.241225         1.166375
 H        -0.896857         2.950186         0.589611
 H        -1.319330         2.636813         2.424790
