19
Iteration:   575
 O         1.874669         2.680628         1.620156
 C         0.651311         1.775825         1.929467
 C         0.460322         0.798895         3.176328
 C        -0.342412         0.040671         2.097127
 C        -1.375635         0.909484         1.324483
 C        -0.550948         0.575798         0.032745
 C         0.609564         0.566911         1.004869
 O         1.832112        -0.184405         0.943767
 C        -0.892629         2.313198         1.806055
 H         1.280676         3.252394         1.107162
 H         1.470685         0.477239         3.352408
 H         0.050000         1.298348         4.106850
 H        -0.564446        -1.139232         2.103920
 H        -2.334096         0.734102         1.147894
 H        -0.675813        -0.499433        -0.352565
 H        -0.637768         1.379490        -0.808394
 H         2.478960         0.516430         0.524436
 H        -1.094032         3.084356         1.114340
 H        -1.405798         2.572242         2.748588
