19
Iteration:   531charge 0 multiplicity 1
 O         1.735231         2.580523         1.743510
 C         0.615711         1.776598         1.936643
 C         0.453345         0.943274         3.187363
 C        -0.419463        -0.061914         2.274242
 C        -1.362292         0.943749         1.347317
 C        -0.563920         0.497350         0.112439
 C         0.664874         0.390925         1.075687
 O         1.911496        -0.041580         0.600329
 C        -0.802756         2.415414         1.576205
 H         1.902042         3.159685         2.500811
 H         1.336157         0.380906         3.487662
 H        -0.034534         1.422517         4.095225
 H        -0.771646        -1.195801         2.487324
 H        -2.360697         0.762600         1.473959
 H        -0.909623        -0.534187        -0.272098
 H        -0.542298         1.206006        -0.769874
 H         2.651847         0.659990         0.763659
 H        -0.854743         3.011710         0.702742
 H        -1.203832         3.022723         2.414496
