19
Iteration:  3107charge 0 multiplicity 1
 O         1.719340         2.718617         1.617426
 C         0.670360         1.815101         1.854260
 C         0.353106         1.008150         3.275367
 C        -0.459741         0.092419         2.385983
 C        -1.294737         0.931939         1.291761
 C        -0.504146         0.429709         0.050398
 C         0.618691         0.429878         1.141811
 O         1.923243        -0.222705         0.750206
 C        -0.782138         2.251166         1.595553
 H         1.711229         3.177573         0.744772
 H         1.248713         0.453053         3.672832
 H        -0.127614         1.701025         4.029235
 H        -0.862776        -0.862357         2.645101
 H        -2.398397         0.845256         1.219764
 H        -0.534706        -0.639846        -0.236385
 H        -0.594176         1.060502        -0.791546
 H         2.669266         0.479844         0.984245
 H        -0.753470         2.993196         0.768709
 H        -1.269022         2.739822         2.453805
