19
Iteration:  3113
 O         1.748910         2.741271         1.646953
 C         0.631498         1.798856         1.877588
 C         0.400635         1.075366         3.265711
 C        -0.492619         0.076608         2.332906
 C        -1.356798         0.900141         1.289779
 C        -0.473332         0.392885         0.091688
 C         0.654535         0.409945         1.127014
 O         1.912123        -0.246851         0.733605
 C        -0.762806         2.309523         1.609778
 H         1.518760         3.127528         0.767514
 H         1.283985         0.560201         3.611152
 H         0.006030         1.626773         4.098819
 H        -0.963929        -0.882728         2.707146
 H        -2.415471         0.742359         1.168574
 H        -0.567202        -0.596082        -0.364860
 H        -0.306384         1.200368        -0.749317
 H         2.531778         0.465999         0.897747
 H        -0.952137         2.930679         0.718668
 H        -1.335903         2.737502         2.437873
