19
Iteration:  2068
 O         1.766569         2.706316         1.741945
 C         0.632812         1.830773         1.910686
 C         0.432326         0.923759         3.170061
 C        -0.389991         0.020208         2.176514
 C        -1.328932         0.881931         1.318489
 C        -0.503581         0.509843         0.013699
 C         0.604771         0.447705         1.046995
 O         1.872262        -0.150463         0.929201
 C        -0.799350         2.312677         1.659192
 H         1.591070         3.137164         0.887560
 H         1.404820         0.480325         3.441386
 H        -0.170199         1.408078         3.988460
 H        -0.525965        -1.048471         2.350527
 H        -2.442100         0.856508         1.384969
 H        -0.855502        -0.446187        -0.246156
 H        -0.469020         1.128439        -0.849625
 H         2.216235         0.024441         0.079146
 H        -0.860099         2.936534         0.715766
 H        -1.296649         2.894706         2.489534
