19
Iteration:   493charge 0 multiplicity 1
 O         1.775344         2.740221         1.973014
 C         0.672305         1.839836         1.905740
 C         0.409689         0.974536         3.182807
 C        -0.300392        -0.006264         2.192776
 C        -1.344236         0.849996         1.358929
 C        -0.714472         0.329261         0.039791
 C         0.555752         0.498974         1.032052
 O         1.834061        -0.075841         0.601921
 C        -0.686181         2.346991         1.545971
 H         2.533847         2.157735         2.226397
 H         1.304976         0.543899         3.716423
 H        -0.008579         1.728310         3.811324
 H        -0.477193        -0.968423         2.401276
 H        -2.548700         0.753098         1.439103
 H        -0.802013        -0.778737        -0.059963
 H        -0.908235         0.809636        -0.976717
 H         2.502186         0.677123         0.718372
 H        -0.654662         2.977550         0.578524
 H        -1.219518         2.863597         2.361731
