19
Iteration:  4394
 O         1.721297         2.667766         1.602188
 C         0.654200         1.795841         1.808947
 C         0.338787         1.184180         3.241058
 C        -0.397318         0.149046         2.376308
 C        -1.416164         0.858607         1.280866
 C        -0.548914         0.341470         0.156519
 C         0.687524         0.416278         1.110380
 O         1.939294        -0.196685         0.867023
 C        -0.743400         2.232767         1.420582
 H         1.630803         3.402799         2.231046
 H         1.233707         0.759570         3.667523
 H        -0.108917         1.817111         3.976291
 H        -0.725058        -0.902129         2.708963
 H        -2.447970         0.775945         1.345710
 H        -0.725817        -0.771340        -0.203878
 H        -0.420610         0.979847        -0.743149
 H         2.648191         0.386544         0.428646
 H        -0.936215         2.811026         0.588267
 H        -1.027005         2.846563         2.267570
