19
Iteration:  4807
 O         1.718598         2.721590         1.677051
 C         0.650044         1.803424         1.778916
 C         0.318722         1.201636         3.199523
 C        -0.364395         0.121922         2.408022
 C        -1.307053         0.847584         1.344175
 C        -0.485126         0.299200         0.150356
 C         0.642934         0.429883         1.088373
 O         1.893663        -0.267070         0.795382
 C        -0.748094         2.280662         1.419054
 H         1.342847         3.619622         1.771263
 H         1.179672         0.800949         3.763790
 H        -0.242074         1.890020         3.809985
 H        -0.656058        -1.009433         2.781270
 H        -2.485295         0.811955         1.282974
 H        -0.614955        -0.749180        -0.074933
 H        -0.545384         0.632156        -0.929052
 H         2.456055         0.412758         1.159975
 H        -0.791421         2.951616         0.559097
 H        -1.331803         2.935384         2.165824
