19
Iteration:  4240charge 0 multiplicity 1
 O         1.694648         2.641387         1.678507
 C         0.657258         1.864075         1.826089
 C         0.343054         1.142224         3.154375
 C        -0.382736         0.112092         2.305520
 C        -1.363936         0.926323         1.335471
 C        -0.553562         0.263067         0.147585
 C         0.687940         0.415741         1.092936
 O         1.950119        -0.236458         0.819766
 C        -0.767222         2.397397         1.431144
 H         1.819322         3.378366         2.307725
 H         1.228801         0.564038         3.485972
 H        -0.125754         1.679271         4.030299
 H        -0.662213        -0.999770         2.548079
 H        -2.436948         0.602097         1.494332
 H        -0.885671        -0.848448         0.038736
 H        -0.656042         0.777501        -0.836427
 H         2.585785         0.433169         1.187070
 H        -0.850666         2.904021         0.517615
 H        -1.193427         2.964969         2.242229
