19
Iteration:   926charge 0 multiplicity 1
 O         1.720330         2.774842         1.860459
 C         0.715278         1.825930         1.889372
 C         0.452550         0.968097         3.216785
 C        -0.257104         0.005437         2.115105
 C        -1.365223         0.893282         1.359583
 C        -0.651423         0.539791         0.055059
 C         0.641366         0.476180         0.982320
 O         1.804182        -0.222093         0.638162
 C        -0.793378         2.292585         1.612298
 H         1.984497         2.955883         2.788877
 H         1.372839         0.530076         3.627932
 H        -0.169687         1.462183         3.932850
 H        -0.533860        -1.042911         2.308942
 H        -2.321065         0.748825         1.637669
 H        -0.749542        -0.439102        -0.344596
 H        -0.459351         1.171012        -0.741927
 H         2.243712        -0.598254         1.490480
 H        -0.798014         2.838037         0.712295
 H        -1.282551         2.908419         2.343497
