19
Iteration:  1659charge 0 multiplicity 1
 O         1.676202         2.760113         1.795523
 C         0.657901         1.801035         1.871371
 C         0.503442         0.871128         3.140055
 C        -0.375434         0.069785         2.266732
 C        -1.351671         0.928416         1.223563
 C        -0.424479         0.524721         0.049255
 C         0.594594         0.453704         1.098418
 O         1.836756        -0.129671         0.777403
 C        -0.801050         2.311272         1.699104
 H         1.964018         2.946295         0.879498
 H         1.441618         0.303667         3.327059
 H         0.097406         1.254883         4.081175
 H        -0.733214        -0.905751         2.636320
 H        -2.371434         0.892478         1.266129
 H        -0.775403        -0.466991        -0.322355
 H        -0.401436         1.181124        -0.893744
 H         1.595861        -1.022100         0.609577
 H        -0.923253         2.991673         0.924284
 H        -1.153481         2.617060         2.662809
