19
Iteration:  1155
 O         1.715334         2.656286         1.662119
 C         0.710736         1.745649         1.910372
 C         0.404205         0.919127         3.202768
 C        -0.357619         0.031725         2.143714
 C        -1.349942         0.885801         1.340269
 C        -0.543834         0.618769         0.061598
 C         0.591479         0.467697         1.017472
 O         1.858809        -0.161506         0.817671
 C        -0.719339         2.313833         1.739372
 H         1.225506         3.286218         1.099272
 H         1.301659         0.357095         3.646067
 H        -0.205550         1.450228         3.938920
 H        -0.490023        -1.159150         2.301949
 H        -2.486638         0.753767         1.451875
 H        -0.672056        -0.437763        -0.293132
 H        -0.476948         1.185556        -0.855595
 H         2.521506         0.502174         1.017263
 H        -0.925496         2.979269         0.893932
 H        -1.216761         2.759771         2.649395
