19
Iteration:  4829
 O         1.677168         2.849246         1.747416
 C         0.703243         1.855691         1.864121
 C         0.345804         1.166224         3.168523
 C        -0.320405         0.106723         2.319781
 C        -1.344377         0.858596         1.343521
 C        -0.568405         0.280461         0.168348
 C         0.640979         0.332885         1.164494
 O         1.886807        -0.303336         0.790169
 C        -0.730874         2.261920         1.364015
 H         1.505962         3.583480         1.123480
 H         1.291483         0.779036         3.537165
 H        -0.193981         1.728889         3.904392
 H        -0.835610        -0.904819         2.658418
 H        -2.451403         0.744286         1.634484
 H        -0.790345        -0.638389        -0.326206
 H        -0.424033         0.944264        -0.752864
 H         2.690198         0.214657         1.128499
 H        -0.734183         2.709892         0.361208
 H        -1.205649         3.135414         1.935227
