19
Iteration:  1877
 O         1.875885         2.521632         1.938047
 C         0.625136         1.812116         1.941094
 C         0.384342         1.086057         3.185303
 C        -0.292491         0.061929         2.353333
 C        -1.371119         0.867281         1.313815
 C        -0.549865         0.374600         0.066341
 C         0.536956         0.422521         1.075482
 O         1.897805         0.109315         0.623620
 C        -0.856873         2.283267         1.445208
 H         2.060978         2.989006         1.103326
 H         1.297320         0.702195         3.724582
 H        -0.251618         1.554578         3.886032
 H        -0.566787        -1.015273         2.602402
 H        -2.454051         0.703275         1.526726
 H        -0.730184        -0.633951        -0.190622
 H        -0.564356         1.053858        -0.740510
 H         1.912230        -0.844227         0.329054
 H        -0.931447         2.894659         0.533466
 H        -1.270951         3.003300         2.192780
