19
Iteration:   755charge 0 multiplicity 1
 O         1.733310         2.767423         1.841809
 C         0.633078         1.825803         1.889736
 C         0.553659         0.968252         3.112821
 C        -0.340748         0.029325         2.225328
 C        -1.324543         0.849167         1.295592
 C        -0.556886         0.619421         0.026289
 C         0.608286         0.429049         1.035031
 O         1.821674        -0.198083         0.821840
 C        -0.813562         2.276751         1.669506
 H         1.670494         3.033559         0.908444
 H         1.555655         0.569861         3.433442
 H         0.100656         1.274637         4.061416
 H        -0.542001        -1.007654         2.462850
 H        -2.515423         0.654887         1.335746
 H        -0.720473        -0.376860        -0.431104
 H        -0.493039         1.444090        -0.760203
 H         1.614008        -1.111429         0.370340
 H        -0.941224         3.077313         0.834424
 H        -1.130529         2.754545         2.637739
