19
Iteration:  2566
 O         1.778546         2.651813         1.494607
 C         0.678311         1.839959         1.866199
 C         0.332239         0.952822         3.203678
 C        -0.367284         0.059674         2.257606
 C        -1.334013         0.939361         1.371577
 C        -0.608292         0.329381         0.058930
 C         0.571153         0.401292         1.072881
 O         1.956070        -0.049981         0.928609
 C        -0.768144         2.310264         1.562576
 H         1.823555         3.291733         2.247959
 H         1.189058         0.456726         3.628745
 H        -0.207591         1.479003         4.014198
 H        -0.617377        -0.952169         2.472426
 H        -2.384827         0.712157         1.536473
 H        -0.978923        -0.664279        -0.275558
 H        -0.495852         0.888210        -0.953593
 H         2.625633         0.719009         1.134099
 H        -0.941062         3.028874         0.779249
 H        -1.223513         2.804235         2.427553
