19
Iteration:  3956charge 0 multiplicity 1
 O         1.788584         2.576060         1.598156
 C         0.669992         1.731634         1.814275
 C         0.387965         1.115555         3.140712
 C        -0.435026         0.072146         2.336903
 C        -1.330437         0.880537         1.323801
 C        -0.624369         0.359195         0.094998
 C         0.632406         0.398137         1.049200
 O         1.930499        -0.027036         0.934519
 C        -0.801983         2.309647         1.480407
 H         1.699514         3.280283         2.236038
 H         1.308024         0.540738         3.463189
 H         0.003597         1.732632         3.931845
 H        -0.691071        -0.915759         2.553011
 H        -2.408435         0.738732         1.471197
 H        -0.863600        -0.645853        -0.192582
 H        -0.713514         1.095707        -0.621064
 H         2.600799         0.559055         1.247147
 H        -0.583519         2.937191         0.613710
 H        -1.251526         2.872720         2.396512
