19
Iteration:   862charge 0 multiplicity 1
 O         1.728339         2.694524         1.693534
 C         0.654998         1.760184         1.909701
 C         0.399146         0.832280         3.197127
 C        -0.327950        -0.025583         2.171806
 C        -1.338913         0.952323         1.336068
 C        -0.599322         0.506914        -0.005975
 C         0.583337         0.494792         1.062677
 O         1.937658        -0.035191         0.920892
 C        -0.755092         2.357094         1.702136
 H         1.890107         2.769222         0.730409
 H         1.238273         0.148721         3.534460
 H        -0.171729         1.393549         3.936388
 H        -0.796662        -1.007718         2.326255
 H        -2.324845         0.816646         1.525075
 H        -0.664912        -0.484785        -0.455138
 H        -0.602403         1.220630        -0.841485
 H         1.893532        -0.464066        -0.027486
 H        -0.835588         3.053778         0.898285
 H        -1.084843         2.865578         2.586838
