19
Iteration:   368charge 0 multiplicity 1
 O         1.819055         2.618388         1.872043
 C         0.653101         1.830019         1.970398
 C         0.352904         0.984767         3.189994
 C        -0.353369         0.028326         2.182101
 C        -1.376346         0.859087         1.297794
 C        -0.586648         0.432345         0.068929
 C         0.613460         0.530977         0.980413
 O         1.851851         0.071162         0.581682
 C        -0.775538         2.301493         1.682636
 H         2.542017         1.937343         1.881390
 H         1.186865         0.362230         3.461796
 H        -0.254287         1.435200         4.002533
 H        -0.451317        -1.170854         2.336693
 H        -2.421010         0.786830         1.474189
 H        -0.615999        -0.663063        -0.035645
 H        -0.523332         0.959908        -0.849857
 H         2.308196        -0.527012         1.216795
 H        -0.846939         2.904405         0.805135
 H        -1.404966         2.746283         2.486616
