19
Iteration:  4887charge 0 multiplicity 1
 O         1.751791         2.760003         1.679727
 C         0.659683         1.857015         1.790266
 C         0.384572         1.141866         3.178396
 C        -0.343221         0.069169         2.353600
 C        -1.328140         0.835152         1.307741
 C        -0.577568         0.325076         0.009991
 C         0.645458         0.376098         1.106672
 O         1.898467        -0.219406         0.962743
 C        -0.820740         2.310088         1.493960
 H         1.744034         2.925624         0.715922
 H         1.331646         0.780221         3.553601
 H        -0.212543         1.772968         3.915581
 H        -0.663314        -0.811923         2.741199
 H        -2.374132         0.585825         1.268946
 H        -1.000750        -0.604576        -0.291353
 H        -0.450028         1.028239        -0.728807
 H         2.496859         0.424698         1.348853
 H        -0.903887         2.740904         0.476900
 H        -1.222869         2.919856         2.351399
