19
Iteration:   200
 O         1.853223         2.572362         1.942448
 C         0.646447         1.810496         1.846697
 C         0.377380         1.014451         3.101095
 C        -0.379338         0.099242         2.188046
 C        -1.361844         0.884178         1.303862
 C        -0.613653         0.403408         0.057016
 C         0.683601         0.497344         1.024601
 O         1.889869        -0.015489         0.711775
 C        -0.821119         2.249658         1.658705
 H         1.914691         2.826474         2.906266
 H         1.235678         0.476355         3.496796
 H        -0.155211         1.603034         3.840510
 H        -0.540165        -1.070037         2.166474
 H        -2.386636         0.679606         1.396843
 H        -0.888885        -0.613368        -0.093211
 H        -0.594501         0.999824        -0.846998
 H         2.041992         0.408591        -0.197022
 H        -0.904573         2.961019         0.816632
 H        -1.395559         2.703945         2.401564
