19
Iteration:  1527charge 0 multiplicity 1
 O         1.774732         2.789982         1.833529
 C         0.677937         1.866610         1.937152
 C         0.401071         0.981452         3.200682
 C        -0.295865         0.069155         2.172371
 C        -1.360064         0.883367         1.296735
 C        -0.655564         0.412427         0.013446
 C         0.620509         0.458017         1.005729
 O         1.873139        -0.166929         0.855477
 C        -0.789197         2.283415         1.573738
 H         2.612718         2.255895         1.844898
 H         1.356136         0.748763         3.611758
 H        -0.252838         1.541781         3.891128
 H        -0.583765        -0.992239         2.378112
 H        -2.342112         0.853955         1.507039
 H        -0.865860        -0.625608        -0.304029
 H        -0.681899         0.990870        -0.981225
 H         1.892223        -0.451891        -0.082609
 H        -0.876880         2.942469         0.771986
 H        -1.222003         2.712599         2.462378
