19
Iteration:   951charge 0 multiplicity 1
 O         1.758585         2.753070         1.986331
 C         0.687236         1.855640         1.919833
 C         0.376249         0.969489         3.172996
 C        -0.362723         0.028847         2.212121
 C        -1.275251         0.943142         1.302983
 C        -0.622926         0.338267         0.129992
 C         0.642405         0.435253         0.976749
 O         1.774752        -0.175154         0.490547
 C        -0.695139         2.316060         1.609899
 H         1.570670         3.471282         2.624618
 H         1.371946         0.442212         3.270169
 H        -0.156848         1.449898         4.078686
 H        -0.766282        -0.979751         2.605121
 H        -2.424307         0.879511         1.397376
 H        -0.857887        -0.744793        -0.053720
 H        -0.514577         0.807693        -0.920846
 H         2.627387         0.218940         0.908277
 H        -0.731477         2.952722         0.669917
 H        -1.064465         3.002619         2.400838
