19
Iteration:  1595
 O         1.788139         2.639040         1.763124
 C         0.685903         1.811006         1.894769
 C         0.396527         0.977877         3.185527
 C        -0.417376         0.051810         2.222302
 C        -1.411655         0.934353         1.345598
 C        -0.491247         0.436277         0.040782
 C         0.617134         0.484014         1.092179
 O         1.881875        -0.039810         0.701000
 C        -0.730275         2.264813         1.643674
 H         1.526972         3.542219         2.035231
 H         1.240607         0.376096         3.572340
 H        -0.234771         1.352775         4.002956
 H        -0.848183        -0.925909         2.417922
 H        -2.524069         0.823239         1.404459
 H        -0.499124        -0.597514        -0.333602
 H        -0.366605         0.999847        -0.918952
 H         1.742962        -0.947583         0.577813
 H        -0.850622         2.860723         0.716476
 H        -1.100942         2.802850         2.513566
