19
Iteration:    37charge 0 multiplicity 1
 O         1.780119         2.561345         1.830790
 C         0.644126         1.789359         1.886839
 C         0.382881         0.959280         3.199290
 C        -0.351609         0.061317         2.262872
 C        -1.322026         0.910892         1.365580
 C        -0.572725         0.448469         0.100356
 C         0.644680         0.489796         1.054957
 O         1.882036         0.012884         0.567436
 C        -0.864480         2.276417         1.527926
 H         2.287165         2.393825         2.620399
 H         1.318808         0.548821         3.629316
 H        -0.138909         1.512615         4.042472
 H        -0.758462        -0.916202         2.506896
 H        -2.294815         0.695097         1.395436
 H        -0.811987        -0.591850        -0.062762
 H        -0.580645         1.113410        -0.810537
 H         2.540833         0.389374         1.134905
 H        -0.965159         2.949118         0.605966
 H        -1.335294         2.882756         2.294011
