19
Iteration:  2541
 O         1.738145         2.453500         1.584953
 C         0.591885         1.801179         1.863757
 C         0.500959         1.032320         3.185297
 C        -0.353486         0.001276         2.283133
 C        -1.358068         0.884332         1.328591
 C        -0.539207         0.490336         0.146164
 C         0.600271         0.480875         1.056009
 O         1.871683         0.000375         0.974263
 C        -0.831727         2.296292         1.460516
 H         1.593009         3.417335         1.472606
 H         1.353282         0.343824         3.339558
 H         0.319560         1.616323         4.059782
 H        -0.543976        -0.983834         2.588114
 H        -2.467564         0.646327         1.322727
 H        -0.704092        -0.466371        -0.355996
 H        -0.545611         1.170574        -0.665802
 H         2.613482         0.690971         1.106020
 H        -0.849017         2.963640         0.595612
 H        -1.270084         2.879928         2.224013
