19
Iteration:  3996
 O         1.713780         2.599740         1.473954
 C         0.559084         1.851682         1.851947
 C         0.401920         0.997196         3.206555
 C        -0.318700         0.046933         2.240537
 C        -1.273166         0.877225         1.296765
 C        -0.418964         0.402924         0.130725
 C         0.660623         0.475581         1.114188
 O         1.785811        -0.184219         1.001076
 C        -0.794555         2.382336         1.597613
 H         1.536681         3.523735         1.820065
 H         1.412127         0.646423         3.595962
 H        -0.104821         1.542484         4.012544
 H        -0.457878        -0.997692         2.412618
 H        -2.372484         0.717844         1.175605
 H        -0.825056        -0.604574        -0.156536
 H        -0.497718         1.218052        -0.743885
 H         2.443073         0.412970         0.569689
 H        -0.960224         2.968974         0.683396
 H        -1.375021         2.896052         2.284790
