19
Iteration:  3192
 O         1.708982         2.654805         1.789435
 C         0.569625         1.854461         1.923576
 C         0.438093         1.073266         3.185049
 C        -0.375232         0.079338         2.291606
 C        -1.365592         0.927033         1.364730
 C        -0.492307         0.318412         0.041125
 C         0.616842         0.348851         1.093853
 O         1.887464        -0.181103         0.806047
 C        -0.736452         2.402224         1.476380
 H         1.609520         3.238592         1.015729
 H         1.359106         0.425085         3.325220
 H         0.145624         1.682015         4.022662
 H        -0.633430        -0.954279         2.559720
 H        -2.358112         0.547844         1.296759
 H        -0.899403        -0.693081        -0.185629
 H        -0.623891         0.956156        -0.915521
 H         2.284502         0.524746         0.356061
 H        -0.598353         3.084563         0.657660
 H        -1.102647         2.950099         2.348545
