19
Iteration:   556charge 0 multiplicity 1
 O         1.794266         2.544630         1.639917
 C         0.616467         1.831647         1.889814
 C         0.441165         0.952526         3.181354
 C        -0.278631        -0.008624         2.158626
 C        -1.372720         0.852652         1.349588
 C        -0.575733         0.678721        -0.002913
 C         0.606482         0.485097         1.056573
 O         1.819675        -0.109302         0.851087
 C        -0.786457         2.227064         1.732060
 H         1.731902         3.526703         1.589018
 H         1.194129         0.311983         3.625347
 H        -0.216027         1.377003         3.934445
 H        -0.423166        -1.062449         2.400990
 H        -2.423478         0.606108         1.540272
 H        -0.782663        -0.180584        -0.548386
 H        -0.540045         1.460452        -0.709520
 H         2.601578         0.529033         0.843832
 H        -0.996582         2.973892         0.957862
 H        -1.187944         2.644001         2.639421
