19
Iteration:   383charge 0 multiplicity 1
 O         1.748207         2.666273         1.844475
 C         0.662023         1.801855         1.874165
 C         0.450200         0.864667         3.202325
 C        -0.312057        -0.006939         2.187099
 C        -1.379665         0.836562         1.370035
 C        -0.585397         0.554904        -0.035191
 C         0.582713         0.529972         1.035428
 O         1.865495         0.005472         0.729246
 C        -0.802705         2.310066         1.594788
 H         2.506769         2.082775         1.669803
 H         1.440600         0.559418         3.571426
 H        -0.085903         1.304961         4.056633
 H        -0.537947        -0.943955         2.376709
 H        -2.450920         0.567647         1.368340
 H        -0.783301        -0.440887        -0.461762
 H        -0.734513         1.524215        -0.654712
 H         2.010274        -0.595023         1.417298
 H        -0.850029         3.036869         0.742786
 H        -1.131024         2.862618         2.499733
