19
Iteration:  1316charge 0 multiplicity 1
 O         1.569815         2.830560         1.614933
 C         0.695987         1.791484         1.947848
 C         0.487240         0.838651         3.188830
 C        -0.363488        -0.014757         2.118219
 C        -1.342265         1.022265         1.282401
 C        -0.563568         0.531880         0.009310
 C         0.620842         0.403003         1.042942
 O         1.945368        -0.154572         0.975179
 C        -0.727771         2.343009         1.743229
 H         2.488376         2.528092         1.424411
 H         1.344621         0.209422         3.607284
 H        -0.154135         1.227515         4.023983
 H        -0.668379        -1.051243         2.256166
 H        -2.516734         1.074839         1.322140
 H        -0.905088        -0.468440        -0.393916
 H        -0.830324         1.044808        -0.965641
 H         1.909210        -0.765095         0.174167
 H        -0.812013         3.097218         0.958760
 H        -1.193953         2.702847         2.677908
