19
Iteration:  3322charge 0 multiplicity 1
 O         1.812076         2.734016         1.806034
 C         0.606554         1.925601         1.909518
 C         0.314661         1.057563         3.124588
 C        -0.232929         0.041958         2.243092
 C        -1.347105         0.947220         1.411757
 C        -0.586692         0.392083         0.070531
 C         0.654056         0.377371         0.991413
 O         1.879125        -0.343858         0.846869
 C        -0.804579         2.385033         1.518566
 H         1.756464         3.315427         1.041121
 H         1.125856         0.780003         3.784673
 H        -0.431500         1.419307         3.743486
 H        -0.468663        -1.001226         2.484522
 H        -2.412983         0.913697         1.636901
 H        -0.782246        -0.665465         0.022020
 H        -0.584343         0.716455        -0.962711
 H         2.441102         0.164621         0.136269
 H        -0.941767         3.094687         0.647265
 H        -1.415242         2.881747         2.309462
