19
Iteration:  2137charge 0 multiplicity 1
 O         1.745730         2.858056         1.854885
 C         0.689755         1.911262         1.931780
 C         0.443781         0.995072         3.172343
 C        -0.344575         0.037169         2.197930
 C        -1.363334         0.947381         1.259588
 C        -0.584901         0.363250         0.056449
 C         0.660397         0.464935         1.044668
 O         1.812115        -0.320135         0.740501
 C        -0.755303         2.250684         1.584274
 H         1.372195         3.672479         1.472537
 H         1.323785         0.311315         3.552099
 H        -0.086616         1.519673         4.022294
 H        -0.513113        -1.048613         2.472726
 H        -2.409851         0.806069         1.337422
 H        -0.896023        -0.738763        -0.048872
 H        -0.560572         0.735012        -0.970271
 H         2.555403         0.140590         1.091897
 H        -0.794485         2.993156         0.689913
 H        -1.277573         2.754556         2.403567
