19
Iteration:  4747charge 0 multiplicity 1
 O         1.672540         2.653085         1.511366
 C         0.632993         1.793820         1.778650
 C         0.379437         1.166528         3.174927
 C        -0.329863         0.126262         2.335082
 C        -1.324912         0.815163         1.310844
 C        -0.584052         0.338472         0.078240
 C         0.534731         0.280950         1.066690
 O         1.983725        -0.057910         1.116378
 C        -0.755452         2.308875         1.448492
 H         2.323773         2.593225         2.219889
 H         1.258320         0.689821         3.646125
 H        -0.090937         1.742293         4.032667
 H        -0.537479        -0.830540         2.487011
 H        -2.366989         0.690996         1.288823
 H        -1.114960        -0.659292        -0.129595
 H        -0.481199         1.146699        -0.659251
 H         2.342579         0.763849         0.578272
 H        -0.688081         2.861564         0.494262
 H        -1.195063         2.902533         2.196228
