19
Iteration:  3492charge 0 multiplicity 1
 O         1.729452         2.725044         1.754965
 C         0.659500         1.850995         1.887647
 C         0.448994         1.088644         3.204667
 C        -0.292099         0.102200         2.271275
 C        -1.370979         0.884790         1.326534
 C        -0.526440         0.397982         0.049331
 C         0.661713         0.363037         1.127247
 O         1.807101        -0.299707         0.780996
 C        -0.866661         2.355032         1.535396
 H         1.560837         3.236058         0.935153
 H         1.312716         0.593251         3.585706
 H        -0.117210         1.628180         3.958491
 H        -0.512749        -0.929085         2.580535
 H        -2.417773         0.793385         1.413904
 H        -0.693803        -0.595263        -0.423509
 H        -0.326827         1.241474        -0.696079
 H         2.598508         0.236623         0.624155
 H        -0.788158         3.031773         0.682373
 H        -1.185579         2.827200         2.458073
