19
Iteration:    39
 O         1.770935         2.560169         1.826962
 C         0.626159         1.791488         1.906007
 C         0.364586         0.965156         3.188148
 C        -0.336604         0.074515         2.253442
 C        -1.322058         0.923568         1.356804
 C        -0.572714         0.431357         0.108646
 C         0.656914         0.503768         1.058071
 O         1.891256        -0.008943         0.550411
 C        -0.843388         2.287701         1.542966
 H         2.296614         2.400849         2.628766
 H         1.334694         0.558865         3.627224
 H        -0.171514         1.460483         4.053916
 H        -0.773872        -0.965260         2.435617
 H        -2.431032         0.637943         1.439418
 H        -0.800007        -0.675893        -0.020601
 H        -0.579455         1.062785        -0.811142
 H         2.544906         0.452737         1.155021
 H        -0.956036         2.976465         0.658441
 H        -1.346901         2.932376         2.326662
