19
Iteration:  3835charge 0 multiplicity 1
 O         1.643095         2.840420         1.583848
 C         0.667451         1.830346         1.845088
 C         0.436728         1.090910         3.174751
 C        -0.332827         0.059086         2.203040
 C        -1.292024         0.928175         1.280746
 C        -0.492117         0.427619         0.059435
 C         0.581198         0.364441         1.114012
 O         1.834044        -0.261564         1.024935
 C        -0.770013         2.252872         1.612515
 H         2.539644         2.464173         1.652006
 H         1.391493         0.719266         3.647492
 H        -0.247009         1.370790         3.938795
 H        -0.645913        -0.906997         2.381725
 H        -2.379752         0.789147         1.144325
 H        -0.859595        -0.568958        -0.236327
 H        -0.327496         1.225313        -0.669035
 H         2.184974        -0.116134         0.062875
 H        -1.023597         2.998452         0.808101
 H        -1.265027         2.714940         2.573598
