19
Iteration:   208
 O         1.863169         2.575175         1.920790
 C         0.610102         1.873791         1.919167
 C         0.327725         1.025097         3.117944
 C        -0.321078        -0.007610         2.151245
 C        -1.384197         0.880079         1.295768
 C        -0.601227         0.431308         0.051747
 C         0.640381         0.438506         0.990954
 O         1.943393        -0.057728         0.698827
 C        -0.801830         2.333933         1.694345
 H         1.757492         3.231765         2.669124
 H         1.198001         0.584028         3.494810
 H        -0.277929         1.519630         3.852830
 H        -0.619251        -0.946258         2.260864
 H        -2.420963         0.741981         1.452635
 H        -0.790494        -0.614808        -0.062507
 H        -0.784324         0.890242        -0.955731
 H         2.154732         0.247599        -0.205377
 H        -0.798099         3.056500         0.885152
 H        -1.365816         2.696053         2.555070
