19
Iteration:  4707charge 0 multiplicity 1
 O         1.636083         2.864348         1.616450
 C         0.659315         1.848843         1.846578
 C         0.375550         1.167763         3.239489
 C        -0.378969         0.174554         2.307202
 C        -1.290801         0.843268         1.276006
 C        -0.486086         0.281819         0.141831
 C         0.720204         0.475251         1.121171
 O         1.792135        -0.323815         0.961303
 C        -0.818137         2.287428         1.416286
 H         2.525544         2.472669         1.783453
 H         1.272504         0.550683         3.449254
 H        -0.062936         1.773934         3.925565
 H        -0.289931        -0.958588         2.595999
 H        -2.290418         0.469833         1.322257
 H        -0.550272        -0.777562        -0.019615
 H        -0.378149         0.836128        -0.844922
 H         2.371258        -0.057506         0.291614
 H        -0.886571         2.669121         0.379653
 H        -1.360386         2.824386         2.210103
