19
Iteration:  4455charge 0 multiplicity 1
 O         1.778709         2.658030         1.488492
 C         0.650647         1.787659         1.747829
 C         0.401703         1.129999         3.165792
 C        -0.388392         0.083792         2.273330
 C        -1.354049         0.847886         1.306774
 C        -0.581657         0.334766         0.098540
 C         0.627010         0.386914         1.087537
 O         1.929988        -0.112606         1.113245
 C        -0.807008         2.314578         1.543163
 H         1.780705         3.434920         2.076992
 H         1.322856         0.505056         3.454342
 H        -0.215713         1.720801         3.899710
 H        -0.836347        -0.864525         2.657308
 H        -2.449411         0.504789         1.439144
 H        -0.947299        -0.504876        -0.417947
 H        -0.462020         0.987178        -0.808344
 H         2.422322         0.654074         0.889683
 H        -0.836242         2.816640         0.504854
 H        -1.106039         2.775167         2.513531
