19
Iteration:    15
 O         1.856299         2.645966         1.776074
 C         0.604168         1.793624         1.899820
 C         0.439854         1.007710         3.137511
 C        -0.372956        -0.030926         2.310759
 C        -1.455933         0.762920         1.321336
 C        -0.571302         0.498980        -0.005785
 C         0.532422         0.391106         1.072094
 O         1.838500         0.031432         0.679613
 C        -0.730065         2.288156         1.589566
 H         2.200226         2.742594         2.710360
 H         1.428305         0.549518         3.387536
 H         0.047925         1.474029         4.099606
 H        -0.547844        -1.034408         2.583051
 H        -2.394009         0.620510         1.415021
 H        -0.703013        -0.306782        -0.679952
 H        -0.362256         1.476610        -0.529849
 H         2.349016         0.589548         1.369862
 H        -0.755349         2.947466         0.640763
 H        -1.153341         2.948969         2.311742
