19
Iteration:  1344charge 0 multiplicity 1
 O         1.699889         2.694780         1.777226
 C         0.647614         1.853003         1.876842
 C         0.586087         0.900819         3.075780
 C        -0.392529         0.054769         2.210937
 C        -1.358775         0.893507         1.312614
 C        -0.460161         0.562810         0.006231
 C         0.586788         0.458771         1.072187
 O         1.846114        -0.100325         0.933420
 C        -0.840777         2.272385         1.641473
 H         1.908749         2.910395         0.855478
 H         1.474711         0.362397         3.061658
 H         0.220703         1.180483         4.059236
 H        -0.595151        -0.998155         2.395247
 H        -2.385305         0.897270         1.330610
 H        -0.733337        -0.355702        -0.505362
 H        -0.530798         1.407643        -0.674892
 H         1.580267        -1.110022         0.995719
 H        -1.026585         2.931794         0.748438
 H        -1.279400         2.708495         2.534956
