19
Iteration:  4271
 O         1.819438         2.511332         1.503689
 C         0.685145         1.821926         1.867174
 C         0.420192         1.094452         3.235541
 C        -0.379820         0.082729         2.327415
 C        -1.388838         0.835692         1.250174
 C        -0.584866         0.365753         0.068496
 C         0.556582         0.433039         1.132660
 O         1.871893         0.010053         1.018142
 C        -0.803719         2.289012         1.441816
 H         2.039256         3.078391         2.256034
 H         1.333386         0.562270         3.574396
 H         0.024822         1.770711         3.950284
 H        -0.575831        -1.003006         2.622925
 H        -2.523381         0.624745         1.356971
 H        -0.734773        -0.590189        -0.436361
 H        -0.576776         0.972692        -0.822579
 H         2.508958         0.808702         0.952979
 H        -0.832567         2.901525         0.545911
 H        -1.195358         2.843973         2.281790
