19
Iteration:   638charge 0 multiplicity 1
 O         1.859328         2.718867         1.986446
 C         0.595417         1.893850         1.958321
 C         0.334855         1.032505         3.157480
 C        -0.260392         0.033757         2.225600
 C        -1.289235         0.839931         1.380568
 C        -0.601873         0.410199         0.078925
 C         0.650503         0.477160         0.989890
 O         1.754922        -0.257975         0.537450
 C        -0.771376         2.359294         1.558738
 H         1.637346         3.589468         1.631093
 H         1.273713         0.649436         3.547228
 H        -0.324905         1.429138         3.992573
 H        -0.422759        -1.114231         2.298073
 H        -2.439422         0.721179         1.506036
 H        -0.626318        -0.686673        -0.188477
 H        -0.762294         1.156128        -0.718108
 H         2.700203        -0.008851         0.849610
 H        -0.906292         2.846481         0.577322
 H        -1.263801         2.869265         2.441472
