19
Iteration:   221charge 0 multiplicity 1
 O         1.786782         2.615051         1.887033
 C         0.625792         1.832404         1.961452
 C         0.329321         0.878890         3.230251
 C        -0.275648        -0.003439         2.160844
 C        -1.318852         0.936832         1.333805
 C        -0.599267         0.430746         0.018997
 C         0.647827         0.485403         0.961635
 O         1.906082        -0.117785         0.707751
 C        -0.811337         2.407940         1.612557
 H         1.704151         3.544408         2.122895
 H         1.248415         0.608108         3.692939
 H        -0.371203         1.173341         3.979000
 H        -0.515926        -1.067710         2.436148
 H        -2.335261         0.734143         1.351929
 H        -0.859877        -0.543392        -0.227648
 H        -0.517104         1.146890        -0.822336
 H         2.239831         0.219902        -0.168236
 H        -1.093596         3.107696         0.812742
 H        -1.166091         2.879071         2.468052
