19
Iteration:  4730
 O         1.658494         2.743487         1.521712
 C         0.598195         1.860259         1.815066
 C         0.394623         1.121024         3.218105
 C        -0.298115         0.034762         2.305486
 C        -1.350090         0.926769         1.291842
 C        -0.525668         0.273109         0.057577
 C         0.661216         0.376365         1.166894
 O         1.924568        -0.184150         1.045332
 C        -0.811636         2.348415         1.431537
 H         2.463188         2.435747         1.959922
 H         1.363686         0.747288         3.605399
 H        -0.338413         1.650630         3.797020
 H        -0.801779        -0.898039         2.858394
 H        -2.473875         0.831770         1.503103
 H        -0.856907        -0.726101        -0.156978
 H        -0.508233         0.866932        -0.894637
 H         2.470404         0.477778         0.505774
 H        -0.829836         2.902484         0.475076
 H        -1.254303         2.863216         2.349734
