19
Iteration:  1477
 O         1.651787         2.752645         1.581065
 C         0.697429         1.799387         1.944262
 C         0.423072         0.919343         3.254703
 C        -0.353958         0.042612         2.213153
 C        -1.336114         0.885979         1.259342
 C        -0.456605         0.625409         0.001449
 C         0.602530         0.406193         1.061652
 O         1.862162        -0.222237         0.976663
 C        -0.801248         2.311131         1.734883
 H         1.570104         2.979074         0.650645
 H         1.240554         0.222522         3.540077
 H        -0.032388         1.419841         4.117092
 H        -0.562244        -0.968736         2.457246
 H        -2.490820         0.871777         1.072969
 H        -0.634893        -0.193722        -0.688399
 H        -0.288944         1.382952        -0.711612
 H         2.070921        -0.498842         0.004591
 H        -0.709218         3.026867         0.832711
 H        -1.102120         2.781114         2.695478
