19
Iteration:  1430
 O         1.787453         2.655695         1.933250
 C         0.658272         1.817771         1.888122
 C         0.510371         1.001280         3.141414
 C        -0.400892         0.051861         2.293363
 C        -1.341700         0.876329         1.309369
 C        -0.580205         0.380374         0.034028
 C         0.560942         0.438284         1.060064
 O         1.877949        -0.066738         0.757141
 C        -0.749598         2.371345         1.462466
 H         1.341307         3.533311         1.948726
 H         1.487879         0.592179         3.318841
 H         0.152598         1.457609         4.101626
 H        -0.810956        -0.967942         2.559237
 H        -2.319568         0.662118         1.455232
 H        -0.970326        -0.560722        -0.225786
 H        -0.707238         0.946698        -0.802666
 H         1.697450        -0.826221         0.185247
 H        -0.572096         2.857957         0.486288
 H        -1.237078         3.027773         2.182101
