19
Iteration:  2076
 O         1.715213         2.742265         1.718150
 C         0.658437         1.813013         1.888871
 C         0.460818         0.909448         3.210403
 C        -0.332313        -0.029168         2.184124
 C        -1.327506         0.903813         1.314399
 C        -0.519904         0.567210        -0.003953
 C         0.606902         0.444879         1.082700
 O         1.847009        -0.187281         0.962070
 C        -0.812722         2.344254         1.588769
 H         1.674644         3.274661         0.909174
 H         1.191433         0.204053         3.440793
 H         0.037046         1.418889         4.089571
 H        -0.608355        -1.015095         2.431921
 H        -2.394366         0.501660         1.524209
 H        -0.841425        -0.316832        -0.522786
 H        -0.398528         1.383907        -0.769018
 H         2.227839        -0.110464         0.139272
 H        -0.940935         2.911011         0.690751
 H        -1.159429         2.817117         2.524994
