19
Iteration:    56
 O         1.742241         2.660823         1.820866
 C         0.612779         1.878057         1.975185
 C         0.299390         0.959024         3.240721
 C        -0.296661        -0.015788         2.134982
 C        -1.358383         0.896625         1.330774
 C        -0.571715         0.304391         0.087251
 C         0.628285         0.443444         0.973423
 O         1.877297        -0.091854         0.583099
 C        -0.723836         2.456492         1.669980
 H         2.187100         2.766322         2.674171
 H         1.159781         0.541130         3.685778
 H        -0.343211         1.410808         3.989534
 H        -0.369793        -1.010619         2.393048
 H        -2.439645         0.876290         1.434025
 H        -0.768712        -0.731487         0.054043
 H        -0.640666         0.727242        -0.917611
 H         2.578755         0.576796         0.462821
 H        -0.609990         3.143523         0.813854
 H        -1.161298         2.918749         2.502602
