19
Iteration:  4727
 O         1.652823         2.753075         1.528774
 C         0.598017         1.887966         1.817609
 C         0.386797         1.127519         3.193793
 C        -0.307353         0.044990         2.295176
 C        -1.387492         0.886525         1.305072
 C        -0.476071         0.275481         0.078174
 C         0.659371         0.415754         1.171963
 O         1.918644        -0.222358         1.027362
 C        -0.809023         2.342590         1.442270
 H         2.479109         2.405432         1.919968
 H         1.330553         0.746608         3.612648
 H        -0.268777         1.583330         3.869267
 H        -0.779932        -0.835225         2.723527
 H        -2.408342         0.903101         1.439261
 H        -0.844271        -0.793193         0.008789
 H        -0.525776         0.904216        -0.866585
 H         2.442330         0.446949         0.485755
 H        -0.764150         2.915363         0.506329
 H        -1.191771         2.851321         2.267861
