19
Iteration:   739charge 0 multiplicity 1
 O         1.785813         2.696112         1.775828
 C         0.686153         1.836804         1.803289
 C         0.481672         0.941790         3.107759
 C        -0.328591         0.063517         2.131651
 C        -1.423912         0.910238         1.375948
 C        -0.515563         0.521520        -0.000424
 C         0.622226         0.499840         1.033470
 O         1.879739        -0.197846         0.920221
 C        -0.917329         2.291055         1.765039
 H         2.103717         3.138405         0.963693
 H         1.362754         0.315280         3.305295
 H         0.224454         1.510506         4.029062
 H        -0.518586        -1.019374         2.376628
 H        -2.407725         0.706748         1.422169
 H        -0.943865        -0.364078        -0.493561
 H        -0.487716         1.385148        -0.680784
 H         1.999810        -0.572025        -0.018797
 H        -1.263395         3.058224         1.157507
 H        -1.383863         2.483936         2.725294
