19
Iteration:  4032charge 0 multiplicity 1
 O         1.729021         2.832439         1.661217
 C         0.663913         1.857170         1.813599
 C         0.439254         1.108823         3.160822
 C        -0.387281         0.118120         2.277385
 C        -1.297390         0.831374         1.331513
 C        -0.591332         0.404939         0.100428
 C         0.633407         0.343236         1.075274
 O         1.909633        -0.359555         0.934694
 C        -0.825035         2.297935         1.507769
 H         1.535991         3.633106         2.213637
 H         1.334193         0.554260         3.589789
 H        -0.054344         1.728468         3.927731
 H        -0.690312        -0.856979         2.595441
 H        -2.393720         0.712072         1.125104
 H        -0.945067        -0.532670        -0.432906
 H        -0.522060         1.163537        -0.723567
 H         2.588404         0.178745         0.473567
 H        -0.974432         2.829013         0.570925
 H        -1.134066         2.865465         2.439840
