19
Iteration:  3988
 O         1.738013         2.593837         1.470036
 C         0.610459         1.822983         1.858134
 C         0.383539         1.023442         3.189515
 C        -0.348792         0.043485         2.252946
 C        -1.329655         0.910331         1.315190
 C        -0.475836         0.425742         0.106332
 C         0.637302         0.415700         1.116522
 O         1.898327        -0.164341         1.011213
 C        -0.840980         2.373119         1.572721
 H         1.552875         3.501761         1.820441
 H         1.385236         0.556864         3.483390
 H        -0.064388         1.506874         4.045802
 H        -0.609549        -0.938379         2.464017
 H        -2.388242         0.651768         1.492671
 H        -0.791242        -0.475158        -0.380275
 H        -0.493985         1.100556        -0.717283
 H         2.450527         0.586792         0.620295
 H        -0.799186         2.978514         0.651121
 H        -1.466707         2.860152         2.396730
