19
Iteration:  2308charge 0 multiplicity 1
 O         1.627993         2.901267         1.982641
 C         0.680270         1.870418         1.855917
 C         0.418731         1.097218         3.117012
 C        -0.295716         0.099970         2.345474
 C        -1.338417         0.883465         1.335256
 C        -0.497356         0.357027         0.060154
 C         0.647324         0.298843         1.084073
 O         1.826127        -0.419832         0.729695
 C        -0.755361         2.364033         1.447975
 H         1.475269         3.395629         1.159749
 H         1.461252         0.886128         3.375459
 H        -0.063759         1.556562         4.021075
 H        -0.491699        -1.033637         2.624984
 H        -2.405216         0.763000         1.390017
 H        -0.748233        -0.610369        -0.411679
 H        -0.581610         1.276649        -0.748744
 H         2.223344        -0.091745        -0.071676
 H        -0.762375         2.927624         0.550930
 H        -1.101696         2.957707         2.290758
