19
Iteration:   823
 O         1.805686         2.591032         2.025326
 C         0.662740         1.823721         1.868779
 C         0.469313         1.054707         3.192970
 C        -0.276411         0.084316         2.243027
 C        -1.368961         0.883607         1.346294
 C        -0.586609         0.382924        -0.018600
 C         0.626252         0.432214         1.058530
 O         1.793049        -0.142729         0.646015
 C        -0.803015         2.324638         1.536633
 H         1.806016         3.358267         1.438724
 H         1.465365         0.808060         3.524352
 H        -0.040473         1.565297         4.079707
 H        -0.639335        -0.946569         2.552501
 H        -2.620042         0.587116         1.442189
 H        -0.871940        -0.646098        -0.369264
 H        -0.845623         1.118557        -0.871191
 H         2.250759         0.520690         0.199501
 H        -0.916480         3.078936         0.642010
 H        -1.255933         2.928663         2.410265
