19
Iteration:   579
 O         1.850070         2.710807         1.639672
 C         0.611955         1.785349         1.923774
 C         0.496868         0.776385         3.175400
 C        -0.337434         0.044742         2.102162
 C        -1.373172         0.977379         1.320544
 C        -0.533937         0.562366         0.035840
 C         0.606903         0.516074         1.012006
 O         1.835885        -0.173339         0.938102
 C        -0.883139         2.306030         1.799153
 H         1.327753         3.251834         1.001471
 H         1.470482         0.226513         3.299508
 H         0.073522         1.165450         4.068083
 H        -0.597420        -0.940077         2.141791
 H        -2.492878         0.627369         1.203186
 H        -0.710783        -0.391646        -0.313538
 H        -0.550830         1.135978        -0.842957
 H         2.505276         0.358730         0.509977
 H        -1.105558         3.138473         1.065607
 H        -1.359881         2.597049         2.717791
