19
Iteration:  3473
 O         1.827121         2.762454         1.784729
 C         0.677397         1.829931         1.825531
 C         0.342001         1.074952         3.225732
 C        -0.404996         0.069195         2.271339
 C        -1.288843         0.892058         1.343424
 C        -0.623456         0.357578         0.102450
 C         0.593057         0.399463         0.974614
 O         1.882999        -0.203045         0.759388
 C        -0.706584         2.260252         1.556758
 H         1.547944         3.488668         1.211801
 H         1.325915         0.746241         3.622241
 H        -0.380403         1.656647         3.937871
 H        -0.714072        -0.903141         2.677575
 H        -2.319372         0.759306         1.447646
 H        -0.975529        -0.673319         0.180900
 H        -0.857958         0.799290        -0.901026
 H         2.466227         0.423856         1.137427
 H        -0.745226         2.711758         0.555072
 H        -1.177767         2.823731         2.338251
