19
Iteration:  1565charge 0 multiplicity 1
 O         1.740689         2.609646         1.889886
 C         0.609979         1.831400         1.914824
 C         0.423162         1.053980         3.249321
 C        -0.350498         0.019399         2.281410
 C        -1.336880         0.963326         1.344977
 C        -0.593770         0.390544         0.098260
 C         0.626709         0.386634         1.106010
 O         1.934100        -0.021425         0.577796
 C        -0.742417         2.330883         1.444698
 H         1.877219         3.018944         2.752683
 H         1.417236         0.595827         3.594569
 H        -0.141083         1.423022         4.117743
 H        -0.950081        -0.866402         2.490894
 H        -2.539261         0.769633         1.395245
 H        -0.834375        -0.652463        -0.266094
 H        -0.549093         1.034204        -0.769044
 H         1.757571        -0.817172        -0.052359
 H        -0.603912         2.718770         0.325395
 H        -1.272155         3.046266         2.167909
