19
Iteration:  2128
 O         1.729609         2.915130         1.810010
 C         0.671911         1.852960         1.912917
 C         0.471574         0.923509         3.160421
 C        -0.338887         0.147765         2.211638
 C        -1.333701         0.940545         1.196371
 C        -0.507846         0.356431         0.030478
 C         0.649505         0.450008         1.025927
 O         1.775602        -0.388221         0.799764
 C        -0.792121         2.297591         1.648597
 H         1.337630         3.709589         1.405720
 H         1.410817         0.541220         3.659338
 H        -0.177336         1.189471         4.000995
 H        -0.474093        -0.894278         2.427594
 H        -2.389738         0.772845         1.443798
 H        -0.856594        -0.756125        -0.087541
 H        -0.469024         1.045445        -0.903305
 H         2.601684         0.040464         0.913915
 H        -1.092646         3.153570         1.016711
 H        -1.231206         2.529342         2.640794
