19
Iteration:  4210charge 0 multiplicity 1
 O         1.740814         2.859568         1.711904
 C         0.726137         1.910073         1.862694
 C         0.337629         1.183406         3.185995
 C        -0.280831         0.061509         2.339950
 C        -1.325942         0.816002         1.308400
 C        -0.455411         0.308080         0.046601
 C         0.614104         0.422040         1.170014
 O         1.674357        -0.343809         0.771175
 C        -0.725511         2.269021         1.419873
 H         1.839082         3.516506         2.401965
 H         1.144526         0.679432         3.698942
 H        -0.236877         1.687034         4.061909
 H        -0.444563        -1.027371         2.642597
 H        -2.344293         0.582697         1.483027
 H        -0.620910        -0.806403        -0.133274
 H        -0.368132         1.003503        -0.804524
 H         2.447541         0.154998         0.935196
 H        -0.827233         2.717897         0.407334
 H        -1.331424         2.984466         2.082158
