19
Iteration:    73
 O         1.759689         2.824373         1.850908
 C         0.693059         1.792975         1.940091
 C         0.377256         0.906177         3.188599
 C        -0.276026         0.019617         2.209460
 C        -1.279512         0.950122         1.295212
 C        -0.629640         0.411745         0.039021
 C         0.589633         0.421773         1.012551
 O         1.828786        -0.132148         0.700640
 C        -0.720109         2.291696         1.602986
 H         2.006874         3.060707         2.752425
 H         1.262341         0.439483         3.736758
 H        -0.417826         1.323631         3.850353
 H        -0.794960        -1.008429         2.252241
 H        -2.404601         0.676535         1.588791
 H        -0.954855        -0.660581        -0.273643
 H        -0.697418         0.977550        -0.907571
 H         2.160649         0.400274         0.002623
 H        -0.820417         2.862401         0.676514
 H        -1.218175         2.717623         2.553463
