19
Iteration:  1698charge 0 multiplicity 1
 O         1.766998         2.729420         1.976040
 C         0.670543         1.806271         1.851731
 C         0.265997         0.991126         3.165477
 C        -0.275024         0.003855         2.248826
 C        -1.333601         0.895975         1.455035
 C        -0.650553         0.435878         0.078005
 C         0.689978         0.482427         1.001898
 O         1.878921        -0.059132         0.617426
 C        -0.722316         2.289551         1.510836
 H         2.529723         2.338195         1.519529
 H         1.146747         0.780792         3.716728
 H        -0.478387         1.490337         3.835195
 H        -0.493974        -1.002200         2.614549
 H        -2.409114         0.638734         1.644554
 H        -0.843067        -0.603498        -0.132840
 H        -0.752297         1.112602        -0.713188
 H         1.712857        -0.892945         0.032091
 H        -0.753222         2.908189         0.547885
 H        -1.143068         3.044764         2.217426
