19
Iteration:  2237
 O         1.660049         2.709391         1.771608
 C         0.613122         1.791241         1.837993
 C         0.455834         1.003091         3.160254
 C        -0.341687         0.045163         2.265739
 C        -1.352091         0.876887         1.368268
 C        -0.537549         0.506618         0.003650
 C         0.614800         0.364270         1.057022
 O         1.912235        -0.227086         0.916990
 C        -0.752237         2.356575         1.515377
 H         1.448753         3.291528         1.024970
 H         1.383551         0.351070         3.342335
 H         0.053726         1.527012         4.080230
 H        -0.622693        -0.887230         2.646057
 H        -2.456539         0.832556         1.505244
 H        -0.701475        -0.407145        -0.619013
 H        -0.453382         1.327676        -0.672120
 H         2.438534         0.551662         0.895319
 H        -0.771402         2.830255         0.497886
 H        -1.291427         2.919636         2.304314
