19
Iteration:   420charge 0 multiplicity 1
 O         1.544268         2.869679         1.659444
 C         0.637827         1.776279         1.866910
 C         0.508454         0.785896         3.172669
 C        -0.396641         0.031562         2.173750
 C        -1.327768         0.991388         1.274008
 C        -0.464629         0.592231        -0.003191
 C         0.644776         0.483535         1.033814
 O         1.918367        -0.212347         0.881629
 C        -0.785680         2.328500         1.843831
 H         2.444013         2.518823         1.472287
 H         1.454696         0.211028         3.419038
 H         0.002749         1.096496         4.109993
 H        -0.756898        -1.106452         2.207671
 H        -2.435129         0.662551         1.244563
 H        -0.635434        -0.366000        -0.568573
 H        -0.514168         1.295684        -0.876675
 H         1.838904        -1.081415         0.523391
 H        -0.843650         3.200090         1.150340
 H        -1.170965         2.585206         2.835931
