19
Iteration:  2025charge 0 multiplicity 1
 O         1.841749         2.611359         1.979153
 C         0.631271         1.864268         1.924905
 C         0.389830         1.055712         3.149630
 C        -0.348525         0.030937         2.271166
 C        -1.348719         0.905771         1.408166
 C        -0.605386         0.309383         0.079383
 C         0.573884         0.372588         1.004172
 O         1.862937        -0.031113         0.616609
 C        -0.753355         2.315865         1.460136
 H         1.854713         3.354611         1.360397
 H         1.348162         0.644562         3.443837
 H        -0.243061         1.509801         3.970314
 H        -0.798041        -0.910879         2.590760
 H        -2.413376         0.745907         1.331251
 H        -0.773245        -0.696237        -0.298983
 H        -0.624582         1.023803        -0.746629
 H         2.511978         0.511130         1.219840
 H        -0.751289         2.659089         0.385887
 H        -1.264500         3.004940         2.158595
