19
Iteration:  1981charge 0 multiplicity 1
 O         1.713897         2.771359         1.858738
 C         0.620087         1.899444         1.961484
 C         0.378403         0.997505         3.169927
 C        -0.288558         0.066144         2.195538
 C        -1.317487         0.916833         1.252778
 C        -0.536887         0.382010         0.065963
 C         0.678965         0.377392         1.048798
 O         1.884656        -0.181951         0.649514
 C        -0.792493         2.360917         1.676401
 H         1.746012         3.115496         0.954788
 H         1.273146         0.555071         3.538947
 H        -0.293065         1.492408         3.951350
 H        -0.686321        -0.855626         2.567624
 H        -2.374507         0.854318         1.540502
 H        -0.931241        -0.618621        -0.159712
 H        -0.406592         0.879804        -0.899915
 H         1.879960        -1.124364         1.095164
 H        -0.730658         3.030831         0.798158
 H        -1.364600         2.635564         2.543631
