19
Iteration:  3219
 O         1.814241         2.646128         1.642547
 C         0.631842         1.820214         1.858429
 C         0.392284         1.055808         3.233219
 C        -0.337730         0.025053         2.342022
 C        -1.373207         0.900658         1.345037
 C        -0.469431         0.503688         0.092206
 C         0.658577         0.426420         1.102180
 O         1.817343        -0.200377         0.829063
 C        -0.839793         2.257817         1.483477
 H         1.582357         3.455175         1.139889
 H         1.321539         0.635053         3.623253
 H        -0.250064         1.699484         3.915659
 H        -0.692415        -0.973354         2.643943
 H        -2.459010         0.677966         1.176709
 H        -0.791539        -0.429654        -0.360450
 H        -0.508757         1.219513        -0.675079
 H         2.512012         0.416132         0.917522
 H        -0.967580         3.000121         0.668223
 H        -1.211530         2.670884         2.441496
