19
Iteration:   337charge 0 multiplicity 1
 O         1.691446         2.648341         1.981200
 C         0.643278         1.770829         1.917466
 C         0.295138         0.960539         3.275990
 C        -0.350745        -0.043916         2.306289
 C        -1.357738         0.946272         1.343991
 C        -0.588214         0.429398         0.091996
 C         0.634228         0.385583         0.990160
 O         1.912537         0.077410         0.422665
 C        -0.676819         2.389421         1.555679
 H         2.297271         2.307206         1.311766
 H         1.152492         0.487640         3.734426
 H        -0.299417         1.338417         4.166553
 H        -0.520954        -1.030394         2.667349
 H        -2.357625         0.788690         1.494812
 H        -0.669191        -0.624649        -0.191398
 H        -0.390278         1.075142        -0.780629
 H         2.403670        -0.622094         0.913723
 H        -0.643422         2.976070         0.657915
 H        -1.243788         3.036447         2.294090
