19
Iteration:  3060
 O         1.844536         2.550667         1.828259
 C         0.613493         1.809303         1.798929
 C         0.485990         1.057412         3.131569
 C        -0.329314         0.137712         2.274533
 C        -1.368237         0.859787         1.352968
 C        -0.629981         0.397761         0.092449
 C         0.596366         0.431584         1.047253
 O         1.870008        -0.083673         0.901281
 C        -0.850526         2.320616         1.420652
 H         1.768805         3.204352         1.085553
 H         1.412446         0.424656         3.186059
 H         0.130680         1.504567         4.073850
 H        -0.509002        -0.823163         2.859236
 H        -2.377822         0.544481         1.374457
 H        -1.024367        -0.563415        -0.137580
 H        -0.543764         1.043460        -0.743550
 H         2.492383         0.756294         0.882393
 H        -1.150698         2.846998         0.546739
 H        -1.255652         2.803751         2.300028
