19
Iteration:  1280
 O         1.792655         2.634054         1.777416
 C         0.638170         1.841067         1.944403
 C         0.455074         1.052901         3.210722
 C        -0.329726         0.008301         2.288471
 C        -1.358226         0.850296         1.368280
 C        -0.506316         0.511012         0.011199
 C         0.604939         0.430919         1.112369
 O         1.842479        -0.112318         0.669062
 C        -0.853376         2.298110         1.545436
 H         2.022876         2.836193         2.710230
 H         1.332694         0.675670         3.641099
 H        -0.258705         1.456619         3.929753
 H        -0.548405        -0.982437         2.530293
 H        -2.368770         0.696679         1.253347
 H        -0.619580        -0.479543        -0.405782
 H        -0.366393         1.431109        -0.620318
 H         1.743434        -0.217478        -0.289245
 H        -0.949086         2.829739         0.560015
 H        -1.366393         2.883524         2.291048
