19
Iteration:  1301
 O         1.643244         2.766515         1.604496
 C         0.672707         1.784544         1.896937
 C         0.326545         0.882398         3.207839
 C        -0.359731         0.040768         2.183868
 C        -1.314999         0.924999         1.335712
 C        -0.560087         0.536918         0.078952
 C         0.654244         0.484669         1.037842
 O         1.922956        -0.155427         0.841922
 C        -0.732445         2.289383         1.701800
 H         2.313502         2.635657         2.296189
 H         1.215016         0.427572         3.510831
 H        -0.214551         1.408991         3.989929
 H        -0.633582        -0.987029         2.347170
 H        -2.333095         0.771522         1.403865
 H        -0.872416        -0.485212        -0.183471
 H        -0.315002         1.270205        -0.740534
 H         1.960268        -0.534741        -0.102342
 H        -0.737550         3.070496         0.900349
 H        -1.092040         2.717321         2.631362
