19
Iteration:  2381
 O         1.787408         2.468092         1.620382
 C         0.582969         1.749428         1.869810
 C         0.468227         1.062303         3.192318
 C        -0.417013         0.059928         2.305506
 C        -1.386247         0.884862         1.254600
 C        -0.505109         0.486933         0.087023
 C         0.596109         0.412574         1.089122
 O         1.927719         0.014256         0.926378
 C        -0.836240         2.273551         1.526829
 H         1.572217         3.081378         0.885442
 H         1.439513         0.687332         3.496004
 H         0.071366         1.574962         4.123878
 H        -0.762502        -0.845946         2.750363
 H        -2.502401         0.765504         1.209294
 H        -0.819641        -0.437026        -0.379807
 H        -0.274732         1.202780        -0.623343
 H         2.546415         0.680411         1.152984
 H        -0.984172         3.059791         0.740519
 H        -1.172451         2.737157         2.508273
