19
Iteration:   943
 O         1.762331         2.793873         1.955209
 C         0.664128         1.805721         1.914044
 C         0.394724         0.938093         3.124188
 C        -0.337981         0.070094         2.230548
 C        -1.327746         0.912275         1.383880
 C        -0.566761         0.370115         0.059357
 C         0.634154         0.475523         0.977654
 O         1.800282        -0.211866         0.513995
 C        -0.702639         2.343088         1.576306
 H         1.650029         3.293516         2.794587
 H         1.219012         0.444766         3.644179
 H        -0.176079         1.425231         3.970267
 H        -0.523743        -0.975277         2.357771
 H        -2.487054         0.796978         1.310666
 H        -0.921659        -0.687094         0.024123
 H        -0.999548         1.003380        -0.784761
 H         2.512880        -0.079762         1.262304
 H        -0.798942         3.027274         0.674716
 H        -0.981148         2.850186         2.546644
