19
Iteration:   797
 O         1.753053         2.805870         1.987414
 C         0.730234         1.867881         1.930515
 C         0.351910         0.959304         3.124576
 C        -0.329014         0.003967         2.214067
 C        -1.324772         0.946603         1.360833
 C        -0.613024         0.382915         0.127810
 C         0.669437         0.409942         1.024301
 O         1.800699        -0.230264         0.516140
 C        -0.707279         2.324659         1.586324
 H         1.553034         3.528230         1.380732
 H         1.282594         0.436162         3.568375
 H        -0.149371         1.522499         3.941919
 H        -0.680804        -0.950705         2.526946
 H        -2.381486         0.881221         1.374186
 H        -0.902847        -0.685198        -0.029591
 H        -0.840221         0.951246        -0.883490
 H         2.489595        -0.096081         1.174338
 H        -0.723699         2.929298         0.661324
 H        -1.246072         2.918157         2.319717
