19
Iteration:  4886
 O         1.754549         2.766469         1.684757
 C         0.662576         1.862578         1.794996
 C         0.386074         1.144711         3.168863
 C        -0.351315         0.071043         2.354698
 C        -1.330281         0.830958         1.310780
 C        -0.576403         0.317311         0.014292
 C         0.647758         0.378607         1.099306
 O         1.899358        -0.225285         0.962746
 C        -0.819192         2.309036         1.495241
 H         1.764107         2.894030         0.714887
 H         1.303700         0.812009         3.563242
 H        -0.168193         1.739045         3.915588
 H        -0.640199        -0.830908         2.743504
 H        -2.392198         0.590656         1.240276
 H        -1.006694        -0.590912        -0.299236
 H        -0.447610         1.027723        -0.764092
 H         2.460074         0.429400         1.340922
 H        -0.947442         2.758803         0.499686
 H        -1.228603         2.925288         2.346787
