19
Iteration:  3667charge 0 multiplicity 1
 O         1.728559         2.687725         1.588114
 C         0.612987         1.794932         1.865835
 C         0.538755         1.025727         3.172510
 C        -0.359516         0.048010         2.269816
 C        -1.356714         0.864044         1.269958
 C        -0.591968         0.476322         0.052887
 C         0.620847         0.469805         1.036122
 O         1.833007        -0.194845         1.007483
 C        -0.746585         2.274393         1.549415
 H         1.661811         3.433394         2.206630
 H         1.415402         0.464482         3.443683
 H         0.001500         1.415536         4.072980
 H        -0.755702        -0.954749         2.659437
 H        -2.412061         0.725920         1.307440
 H        -0.871067        -0.531568        -0.288102
 H        -0.673678         1.235633        -0.736206
 H         2.615902         0.434336         0.787526
 H        -0.756847         2.934940         0.607026
 H        -1.237350         2.899384         2.322850
