19
Iteration:  3927charge 0 multiplicity 1
 O         1.822526         2.633079         1.650247
 C         0.602018         1.901137         1.906524
 C         0.331448         1.081422         3.332389
 C        -0.309750         0.098638         2.359950
 C        -1.363097         0.917303         1.277417
 C        -0.519634         0.245826         0.138119
 C         0.671314         0.494621         1.065867
 O         1.849419        -0.197667         0.723904
 C        -0.884163         2.367972         1.430718
 H         2.184496         2.916852         2.523488
 H         1.268346         0.738948         3.702259
 H        -0.267837         1.429750         4.230803
 H        -0.367194        -1.072561         2.441619
 H        -2.448253         0.813591         1.259613
 H        -0.780802        -0.883636         0.128771
 H        -0.540708         0.817054        -0.901941
 H         2.661380         0.387818         0.534052
 H        -0.755446         2.897703         0.470055
 H        -1.458046         3.092653         2.001048
