19
Iteration:  1416charge 0 multiplicity 1
 O         1.754992         2.689981         1.963945
 C         0.664052         1.812043         1.954423
 C         0.448642         0.960658         3.264837
 C        -0.390867         0.117908         2.311699
 C        -1.337101         0.950257         1.326310
 C        -0.655045         0.334245         0.082163
 C         0.631924         0.392028         1.039098
 O         1.837549        -0.009302         0.604582
 C        -0.652915         2.278837         1.361379
 H         1.516897         3.611901         2.062620
 H         1.357715         0.291287         3.414419
 H         0.057997         1.554160         4.117695
 H        -0.749517        -0.905929         2.667523
 H        -2.455031         1.030272         1.406590
 H        -0.695977        -0.789336        -0.151648
 H        -0.529130         0.947205        -0.923732
 H         1.938499        -0.999674         0.355078
 H        -0.574876         2.684591         0.369141
 H        -1.261750         2.929892         2.025222
