19
Iteration:   490charge 0 multiplicity 1
 O         1.765855         2.739025         1.981582
 C         0.668194         1.850649         1.901433
 C         0.398995         0.977512         3.160373
 C        -0.266730         0.009814         2.194364
 C        -1.368677         0.838515         1.365681
 C        -0.714178         0.363591         0.054962
 C         0.554200         0.466207         1.013343
 O         1.861019        -0.096883         0.609778
 C        -0.702051         2.347295         1.547771
 H         2.487526         2.107590         2.169977
 H         1.322271         0.659079         3.599891
 H        -0.080243         1.671008         3.860744
 H        -0.498291        -1.034596         2.459347
 H        -2.421749         0.826486         1.446121
 H        -0.811615        -0.655876        -0.121241
 H        -0.877127         0.826571        -0.842257
 H         2.447018         0.611335         0.666415
 H        -0.644477         2.921187         0.640329
 H        -1.207879         2.942647         2.316391
