19
Iteration:  4921charge 0 multiplicity 1
 O         1.775182         2.624377         1.497075
 C         0.582330         1.808818         1.858299
 C         0.304276         1.079143         3.226529
 C        -0.428422         0.071535         2.357844
 C        -1.341594         0.870587         1.299551
 C        -0.454524         0.308560         0.135794
 C         0.624672         0.447728         1.178547
 O         1.918012        -0.093561         0.907403
 C        -0.785490         2.322273         1.484523
 H         1.723211         3.584610         1.635069
 H         1.258234         0.563584         3.533178
 H        -0.155120         1.685052         4.088530
 H        -0.665608        -0.901811         2.683551
 H        -2.389077         0.692784         1.162759
 H        -0.700771        -0.750240        -0.030132
 H        -0.383869         0.752878        -0.796501
 H         2.683060         0.404158         0.748569
 H        -0.702248         2.775884         0.444300
 H        -1.188778         3.179555         2.080353
