19
Iteration:   369charge 0 multiplicity 1
 O         1.818785         2.619639         1.869309
 C         0.650147         1.825732         1.971044
 C         0.358257         0.978759         3.189365
 C        -0.346464         0.023894         2.188072
 C        -1.390014         0.846560         1.300338
 C        -0.584246         0.442278         0.064401
 C         0.610616         0.536769         0.977697
 O         1.850004         0.069982         0.590590
 C        -0.771635         2.305064         1.672531
 H         2.558340         1.958415         1.876130
 H         1.183001         0.363244         3.460701
 H        -0.235365         1.430330         4.015036
 H        -0.442292        -1.116266         2.345780
 H        -2.399756         0.795845         1.475277
 H        -0.619210        -0.641704        -0.099451
 H        -0.534334         0.966679        -0.877864
 H         2.293304        -0.548984         1.269402
 H        -0.873454         2.905486         0.809999
 H        -1.366627         2.751913         2.511725
