19
Iteration:  2933charge 0 multiplicity 1
 O         1.738079         2.715181         1.824225
 C         0.702960         1.828341         1.883408
 C         0.373748         1.056388         3.160090
 C        -0.291693         0.031043         2.249535
 C        -1.335316         0.890291         1.402818
 C        -0.609840         0.391438         0.080856
 C         0.627151         0.411779         1.098573
 O         1.796685        -0.151388         0.761747
 C        -0.680935         2.293828         1.448414
 H         1.682269         2.995716         0.902418
 H         1.201823         0.683803         3.757093
 H        -0.229894         1.554056         3.927726
 H        -0.657111        -0.952138         2.267415
 H        -2.386888         0.855743         1.590261
 H        -0.867910        -0.692100        -0.253244
 H        -0.647742         0.953400        -0.917532
 H         2.516205         0.398344         1.175806
 H        -0.946218         2.855241         0.507145
 H        -1.064691         2.876888         2.302158
