19
Iteration:  3291charge 0 multiplicity 1
 O         1.739640         2.707522         1.880697
 C         0.676203         1.797264         1.858429
 C         0.434994         1.118537         3.213452
 C        -0.379596         0.125539         2.355497
 C        -1.364619         0.885246         1.432744
 C        -0.473918         0.409141        -0.034567
 C         0.562411         0.385069         1.065652
 O         1.813874        -0.206655         0.763312
 C        -0.762173         2.264111         1.418790
 H         1.833162         3.022556         0.948435
 H         1.310831         0.578262         3.621871
 H        -0.045502         1.715555         3.925573
 H        -0.586927        -0.878519         2.705540
 H        -2.479707         0.795235         1.690948
 H        -0.572444        -0.710670        -0.203804
 H        -0.391818         0.919250        -1.063577
 H         2.325478         0.375344         0.258436
 H        -0.730095         2.802923         0.449001
 H        -1.255301         2.933152         2.168780
