19
Iteration:  1945charge 0 multiplicity 1
 O         1.605990         2.820214         1.817804
 C         0.662936         1.789316         1.888477
 C         0.599998         0.939466         3.070626
 C        -0.301442         0.091121         2.209178
 C        -1.346136         0.855849         1.339925
 C        -0.551450         0.612667        -0.039241
 C         0.615290         0.490992         1.056246
 O         1.802071        -0.235016         0.974889
 C        -0.773988         2.229443         1.593526
 H         1.944511         2.926272         0.914848
 H         1.541884         0.418914         3.264604
 H         0.220854         1.365337         3.998966
 H        -0.364592        -0.988420         2.366691
 H        -2.456356         0.507115         1.532311
 H        -0.724811        -0.273717        -0.545564
 H        -0.430951         1.400616        -0.769992
 H         1.602388        -1.164311         0.591837
 H        -0.726536         2.929804         0.744145
 H        -1.414956         2.807498         2.322320
