19
Iteration:  3896
 O         1.684304         2.836616         1.772795
 C         0.667681         1.773789         1.737227
 C         0.364587         1.157964         3.126335
 C        -0.352649         0.045272         2.368848
 C        -1.321050         0.916145         1.400647
 C        -0.544304         0.318984         0.094223
 C         0.596936         0.342545         1.031208
 O         1.842805        -0.229537         0.829311
 C        -0.711106         2.283349         1.502911
 H         2.208936         2.612482         2.544001
 H         1.256687         0.826639         3.633746
 H        -0.295292         1.765306         3.851881
 H        -0.441826        -1.092935         2.672528
 H        -2.416145         0.868755         1.335378
 H        -0.918600        -0.539419        -0.490984
 H        -0.294407         1.009070        -0.804722
 H         2.400406         0.383370         0.310906
 H        -0.789006         2.763022         0.504651
 H        -0.964846         3.020825         2.188074
