19
Iteration:  1082
 O         1.769094         2.750190         2.013293
 C         0.669894         1.862589         1.915105
 C         0.353663         1.015067         3.170661
 C        -0.264248         0.059085         2.136823
 C        -1.315190         0.871599         1.414876
 C        -0.576044         0.436353         0.079785
 C         0.649869         0.445547         1.000873
 O         1.797733        -0.312512         0.557187
 C        -0.769779         2.330172         1.588634
 H         1.757374         3.502128         1.396038
 H         1.175735         0.673189         3.880846
 H        -0.366980         1.592872         3.851708
 H        -0.503322        -1.059366         2.392402
 H        -2.447012         0.624471         1.554354
 H        -1.033189        -0.555114        -0.138935
 H        -0.738853         1.032893        -0.849869
 H         2.502874         0.277444         0.552712
 H        -0.607667         3.009122         0.716110
 H        -1.196336         3.035376         2.351601
