19
Iteration:  1992
 O         1.705199         2.707974         1.885815
 C         0.642619         1.844853         1.950725
 C         0.392013         1.006432         3.275579
 C        -0.317330         0.047196         2.225620
 C        -1.307254         0.944354         1.348408
 C        -0.516464         0.344494         0.064417
 C         0.617600         0.438025         0.997278
 O         1.865460        -0.116288         0.606756
 C        -0.751324         2.330207         1.547086
 H         1.622494         3.198747         1.044648
 H         1.247941         0.609325         3.787532
 H        -0.235210         1.471523         4.111331
 H        -0.724461        -0.943715         2.403756
 H        -2.394398         0.754623         1.321785
 H        -0.694907        -0.715236        -0.161973
 H        -0.562976         1.018888        -0.788988
 H         2.070451        -0.948391         1.139899
 H        -0.837504         2.960033         0.626325
 H        -1.149008         3.055355         2.239634
