19
Iteration:   827
 O         1.794912         2.549499         1.994314
 C         0.660242         1.846706         1.876327
 C         0.443593         1.034917         3.163468
 C        -0.251797         0.039675         2.263812
 C        -1.379913         0.890586         1.338679
 C        -0.613047         0.422767        -0.005566
 C         0.634150         0.470538         1.068706
 O         1.820433        -0.134927         0.692534
 C        -0.829948         2.337949         1.530601
 H         1.829182         3.276293         1.336509
 H         1.436636         0.688818         3.467844
 H         0.101352         1.572077         4.014112
 H        -0.665785        -0.907162         2.529101
 H        -2.374722         0.664033         1.410785
 H        -0.759449        -0.585100        -0.334967
 H        -0.853059         1.115814        -0.716662
 H         2.198558         0.562399         0.006307
 H        -0.861311         2.937847         0.670919
 H        -1.267406         2.903956         2.318686
