19
Iteration:  1340
 O         1.682205         2.733956         1.756164
 C         0.615531         1.818306         1.877503
 C         0.580580         0.875118         3.067363
 C        -0.389239         0.087880         2.209402
 C        -1.335046         0.921277         1.324493
 C        -0.486188         0.550918         0.016219
 C         0.581260         0.462780         1.063060
 O         1.850182        -0.106009         0.964228
 C        -0.807004         2.273727         1.652072
 H         1.974269         2.814168         0.819665
 H         1.556835         0.264809         3.069784
 H         0.236326         1.057398         4.104556
 H        -0.615331        -1.035348         2.328931
 H        -2.466414         0.763815         1.218305
 H        -0.772576        -0.294549        -0.610299
 H        -0.391852         1.277330        -0.793697
 H         1.617670        -1.000436         0.924174
 H        -0.937319         2.945171         0.826966
 H        -1.252082         2.682781         2.590579
