19
Iteration:  1247
 O         1.817131         2.648223         1.949984
 C         0.683622         1.849280         1.890544
 C         0.392411         0.992993         3.160804
 C        -0.327977         0.056433         2.188271
 C        -1.343215         0.885199         1.411484
 C        -0.657258         0.299174         0.124664
 C         0.602717         0.503522         0.991805
 O         1.898923        -0.139601         0.631533
 C        -0.774220         2.392889         1.528682
 H         1.632588         3.280549         2.666229
 H         1.264945         0.713949         3.658472
 H        -0.357730         1.438296         3.815710
 H        -0.549010        -0.956252         2.337509
 H        -2.356079         0.823968         1.536284
 H        -0.724038        -0.752769        -0.031778
 H        -0.712273         0.647774        -0.911973
 H         2.031795         0.348922        -0.285929
 H        -0.829930         2.934466         0.558674
 H        -1.175827         3.015616         2.313740
