19
Iteration:  1001charge 0 multiplicity 1
 O         1.815200         2.583270         1.797052
 C         0.650623         1.792483         1.921510
 C         0.407518         0.908826         3.132543
 C        -0.326380        -0.013887         2.118752
 C        -1.352848         0.904705         1.415685
 C        -0.612169         0.563390         0.037411
 C         0.586115         0.484726         1.007482
 O         1.880508        -0.075481         0.814942
 C        -0.813332         2.310344         1.656765
 H         1.873497         2.851782         0.865150
 H         1.278914         0.502803         3.624936
 H        -0.247213         1.410715         3.765130
 H        -0.474825        -1.088122         2.249117
 H        -2.345772         0.784973         1.614303
 H        -0.787616        -0.438019        -0.315512
 H        -0.744368         1.298339        -0.725104
 H         2.376378         0.699733         0.720186
 H        -0.852688         3.012489         0.851538
 H        -1.093313         2.817468         2.596181
