19
Iteration:  3610charge 0 multiplicity 1
 O         1.808484         2.508099         1.729262
 C         0.635865         1.816368         1.883711
 C         0.304524         1.168849         3.265394
 C        -0.383372         0.106130         2.245112
 C        -1.360842         0.868567         1.372447
 C        -0.541430         0.275970         0.104600
 C         0.632940         0.446091         1.114811
 O         1.896194        -0.056660         0.606454
 C        -0.721402         2.337663         1.517667
 H         1.788180         3.485401         1.743451
 H         0.974909         0.659799         4.019095
 H        -0.539585         1.593533         3.819611
 H        -0.635297        -0.873431         2.644737
 H        -2.464737         0.804038         1.596295
 H        -0.792827        -0.776487         0.027671
 H        -0.483172         0.749678        -0.825853
 H         2.570380         0.565309         1.093306
 H        -0.862135         2.839273         0.539543
 H        -1.033935         2.876689         2.428313
