19
Iteration:  4121
 O         1.692118         2.453538         1.521084
 C         0.541749         1.771105         1.868800
 C         0.367966         1.166028         3.202723
 C        -0.282750         0.093794         2.320129
 C        -1.326363         0.926269         1.303378
 C        -0.586670         0.394475         0.028470
 C         0.661783         0.398896         1.114560
 O         1.986739        -0.050451         0.946839
 C        -0.838509         2.327161         1.502557
 H         2.158089         2.697988         2.344566
 H         1.304338         0.683404         3.510543
 H        -0.264535         1.617967         4.053584
 H        -0.785713        -0.932049         2.669235
 H        -2.444275         0.808547         1.366293
 H        -0.700466        -0.727308        -0.200686
 H        -0.521783         1.279696        -0.578145
 H         2.466235         0.735802         0.878211
 H        -0.721081         2.817768         0.535682
 H        -1.212688         3.017291         2.352143
