19
Iteration:  3042charge 0 multiplicity 1
 O         1.812333         2.612428         1.808795
 C         0.663729         1.810590         1.843277
 C         0.503171         1.127398         3.173406
 C        -0.415607         0.104180         2.306307
 C        -1.414704         0.878491         1.276637
 C        -0.552972         0.313708         0.059271
 C         0.608304         0.395828         1.083718
 O         1.834647        -0.121607         0.797757
 C        -0.788743         2.285183         1.548356
 H         1.691451         3.444128         1.301447
 H         1.410359         0.682031         3.604318
 H         0.048842         1.812633         3.941054
 H        -0.719449        -0.906508         2.437257
 H        -2.485316         0.904218         1.457206
 H        -0.724266        -0.782432        -0.208523
 H        -0.641512         0.908978        -0.867509
 H         2.439727         0.694909         0.620045
 H        -0.697086         2.976639         0.671037
 H        -1.324742         2.806433         2.366142
