19
Iteration:  3325
 O         1.806750         2.741614         1.802519
 C         0.616752         1.901878         1.909313
 C         0.328953         1.054147         3.140311
 C        -0.244870         0.051241         2.225096
 C        -1.331117         0.938120         1.386979
 C        -0.603283         0.383714         0.050747
 C         0.679741         0.370326         0.990570
 O         1.869340        -0.340863         0.861981
 C        -0.813718         2.411883         1.542767
 H         1.733959         3.378897         1.056468
 H         1.198152         0.759223         3.761124
 H        -0.401085         1.478757         3.817964
 H        -0.532270        -0.956765         2.485248
 H        -2.474343         0.895254         1.734522
 H        -0.856295        -0.746017        -0.003493
 H        -0.472876         0.730838        -1.055193
 H         2.397552         0.174145         0.182724
 H        -1.065554         2.963843         0.584672
 H        -1.340224         2.957874         2.377091
