19
Iteration:  3043charge 0 multiplicity 1
 O         1.811419         2.606887         1.812906
 C         0.672172         1.807021         1.843965
 C         0.505166         1.130008         3.170161
 C        -0.409437         0.112580         2.306026
 C        -1.411007         0.877607         1.273231
 C        -0.556854         0.312151         0.067415
 C         0.602666         0.393378         1.079085
 O         1.834662        -0.117109         0.802436
 C        -0.798037         2.277958         1.545021
 H         1.696864         3.443599         1.300565
 H         1.396920         0.692053         3.592623
 H         0.092074         1.813577         3.948702
 H        -0.736779        -0.884497         2.408795
 H        -2.518288         0.895938         1.445262
 H        -0.714434        -0.782222        -0.226731
 H        -0.650070         0.937196        -0.874675
 H         2.442346         0.705019         0.617911
 H        -0.697758         2.977204         0.667251
 H        -1.316368         2.815457         2.375561
