19
Iteration:  1841
 O         1.725789         2.731877         1.950792
 C         0.668446         1.784546         1.929624
 C         0.433951         0.989126         3.172630
 C        -0.296812         0.036145         2.238263
 C        -1.394203         0.954786         1.337214
 C        -0.686453         0.357292         0.053225
 C         0.654929         0.417412         1.026532
 O         1.924612        -0.011682         0.712610
 C        -0.736482         2.322951         1.506602
 H         1.954158         2.640464         1.007102
 H         1.260645         0.521721         3.633687
 H        -0.243306         1.498545         3.897323
 H        -0.522401        -0.972098         2.582238
 H        -2.413384         0.966736         1.454612
 H        -0.840126        -0.762114        -0.022854
 H        -0.890749         0.792410        -0.936519
 H         1.963248        -0.911444         0.251552
 H        -0.715581         2.862795         0.535979
 H        -1.087818         2.896079         2.337270
