19
Iteration:  2246
 O         1.649810         2.816827         1.805912
 C         0.631416         1.759126         1.864444
 C         0.484387         1.001302         3.118681
 C        -0.346268         0.074157         2.233321
 C        -1.317148         0.938946         1.362720
 C        -0.512776         0.558396         0.016420
 C         0.615858         0.366603         1.001105
 O         1.843431        -0.296196         0.975398
 C        -0.786257         2.220045         1.502639
 H         1.394428         3.399059         1.075523
 H         1.529834         0.610268         3.424331
 H         0.167925         1.361265         4.123457
 H        -0.519120        -0.990417         2.541342
 H        -2.365356         0.785449         1.488530
 H        -0.676824        -0.454346        -0.401160
 H        -0.514826         1.309761        -0.665110
 H         2.464085         0.268395         0.531221
 H        -0.957974         2.755068         0.481696
 H        -1.062293         2.985280         2.232280
