19
Iteration:  1811charge 0 multiplicity 1
 O         1.667723         2.860216         1.796504
 C         0.647067         1.833620         1.859378
 C         0.498491         0.920609         3.105191
 C        -0.402339         0.034081         2.251706
 C        -1.333563         0.934402         1.327268
 C        -0.462505         0.478908        -0.015932
 C         0.665075         0.423662         1.081718
 O         1.842979        -0.191908         0.807005
 C        -0.812975         2.302673         1.685426
 H         2.012865         2.593167         0.929828
 H         1.441553         0.403772         3.359967
 H         0.104634         1.361592         3.999353
 H        -0.658257        -1.021652         2.573190
 H        -2.406532         0.859450         1.322485
 H        -0.604172        -0.504985        -0.270121
 H        -0.438162         1.173127        -0.810135
 H         1.651701        -1.121153         0.523837
 H        -1.090565         3.140813         1.034312
 H        -1.188285         2.689742         2.663007
