19
Iteration:  4268charge 0 multiplicity 1
 O         1.838652         2.543091         1.528212
 C         0.674183         1.801939         1.835841
 C         0.439490         1.097302         3.217249
 C        -0.389455         0.056810         2.347734
 C        -1.395082         0.867011         1.267917
 C        -0.554265         0.339671         0.080230
 C         0.554829         0.394852         1.114172
 O         1.859526         0.014006         1.009774
 C        -0.803922         2.289974         1.438430
 H         2.046306         3.178969         2.257837
 H         1.357736         0.585734         3.599942
 H        -0.102295         1.729982         3.938491
 H        -0.657794        -0.912285         2.590581
 H        -2.471302         0.615743         1.313407
 H        -0.854189        -0.555646        -0.394574
 H        -0.596688         1.018946        -0.828182
 H         2.442353         0.857279         0.998074
 H        -0.836847         2.951249         0.470410
 H        -1.219682         2.827190         2.338551
