19
Iteration:   304
 O         1.772310         2.710971         1.943728
 C         0.643781         1.837822         1.900653
 C         0.425645         0.881951         3.188524
 C        -0.287319         0.008165         2.151686
 C        -1.355175         0.891760         1.331147
 C        -0.560238         0.513567         0.020368
 C         0.601470         0.529629         1.011205
 O         1.836420        -0.113691         0.667627
 C        -0.841111         2.330833         1.632663
 H         2.204528         2.881311         1.080206
 H         1.354554         0.374810         3.471698
 H        -0.113634         1.263113         4.103071
 H        -0.358806        -1.048019         2.306826
 H        -2.392706         0.657647         1.412245
 H        -0.621003        -0.511626        -0.385083
 H        -0.614727         1.180248        -0.864694
 H         2.068764        -0.561555         1.445799
 H        -0.866064         2.969948         0.762664
 H        -1.340249         2.711696         2.565617
