19
Iteration:  1032charge 0 multiplicity 1
 O         1.740296         2.627362         1.662923
 C         0.624077         1.827052         1.947109
 C         0.537675         0.860725         3.086314
 C        -0.422488         0.015448         2.164645
 C        -1.343283         0.972967         1.288019
 C        -0.521528         0.592683        -0.001395
 C         0.585797         0.464430         1.049093
 O         1.880624        -0.134023         0.868709
 C        -0.859199         2.280776         1.765424
 H         1.557729         3.023292         0.785606
 H         1.412087         0.337138         3.290091
 H         0.353549         1.201371         4.083971
 H        -0.604240        -0.966344         2.372717
 H        -2.362606         0.857319         1.368361
 H        -0.676471        -0.419857        -0.391116
 H        -0.501363         1.364255        -0.782346
 H         2.346676         0.206551         1.741351
 H        -0.935886         3.180398         1.165511
 H        -1.152480         2.540813         2.779388
