19
Iteration:  4157
 O         1.772070         2.728034         1.540272
 C         0.659117         1.857336         1.794971
 C         0.388744         1.039654         3.162505
 C        -0.360354         0.062168         2.254132
 C        -1.339519         0.888614         1.269959
 C        -0.512644         0.276923         0.125653
 C         0.574618         0.463208         1.084460
 O         1.805485        -0.156247         0.998466
 C        -0.745765         2.310189         1.567887
 H         2.054585         3.142562         2.359506
 H         1.309799         0.532487         3.428453
 H        -0.029633         1.440536         4.106821
 H        -0.770554        -0.925624         2.501477
 H        -2.368786         0.784940         1.405146
 H        -0.580581        -0.717482        -0.228215
 H        -0.618284         0.865561        -0.801053
 H         2.499658         0.441850         1.094445
 H        -0.779045         2.927894         0.586548
 H        -1.344247         2.969119         2.320017
