19
Iteration:  1523charge 0 multiplicity 1
 O         1.761795         2.793088         1.823971
 C         0.647896         1.851598         1.954545
 C         0.417976         0.978588         3.194136
 C        -0.301681         0.081126         2.207537
 C        -1.377277         0.915836         1.290404
 C        -0.612639         0.428128        -0.003621
 C         0.628524         0.437404         0.989119
 O         1.879025        -0.183045         0.866519
 C        -0.791367         2.299116         1.577313
 H         2.556133         2.263307         1.631058
 H         1.412685         0.605111         3.579926
 H        -0.180362         1.486497         3.956804
 H        -0.472340        -0.984437         2.434286
 H        -2.503558         0.792291         1.574950
 H        -0.909241        -0.572435        -0.397965
 H        -0.609927         0.975914        -0.948805
 H         1.907111        -0.431123        -0.066006
 H        -0.896822         2.969036         0.687116
 H        -1.306269         2.633837         2.510355
