19
Iteration:  4077
 O         1.807654         2.765246         1.670430
 C         0.657749         1.908431         1.914489
 C         0.366035         1.053707         3.232094
 C        -0.387500         0.156263         2.296567
 C        -1.384495         0.834796         1.301371
 C        -0.559182         0.317658         0.093811
 C         0.633521         0.500669         1.069426
 O         1.848317        -0.234661         0.833710
 C        -0.754042         2.230836         1.381888
 H         2.064987         3.320157         2.437129
 H         1.323590         0.538598         3.424676
 H        -0.062940         1.500148         4.172949
 H        -0.540599        -0.907934         2.721468
 H        -2.484721         0.782704         1.540744
 H        -0.726028        -0.831898         0.249367
 H        -0.801817         0.722872        -0.895899
 H         2.676432         0.311560         0.777921
 H        -0.744942         2.704214         0.404296
 H        -1.478188         2.732954         2.131263
