19
Iteration:     1charge 0 multiplicity 1
 O         1.746546         2.617674         1.718772
 C         0.631265         1.795227         1.909419
 C         0.432102         0.912637         3.171753
 C        -0.334454         0.014974         2.187193
 C        -1.352738         0.899150         1.335868
 C        -0.560514         0.512477         0.051847
 C         0.615912         0.470525         1.031519
 O         1.859066        -0.075372         0.767755
 C        -0.794228         2.309705         1.635541
 H         1.947245         3.073795         2.541966
 H         1.362914         0.428701         3.479157
 H        -0.077418         1.351802         4.035571
 H        -0.594418        -1.023515         2.380339
 H        -2.427137         0.742106         1.403664
 H        -0.801960        -0.493154        -0.304148
 H        -0.558842         1.218171        -0.785643
 H         2.494603         0.651773         0.818390
 H        -0.853065         2.978620         0.772783
 H        -1.244421         2.803699         2.502310
