19
Iteration:  2496charge 0 multiplicity 1
 O         1.656067         2.858891         1.820385
 C         0.721728         1.800470         1.859077
 C         0.349870         1.078614         3.173545
 C        -0.294557         0.129406         2.240409
 C        -1.272007         0.886184         1.310744
 C        -0.603613         0.371613         0.086117
 C         0.691962         0.436849         1.069686
 O         1.811248        -0.347890         0.805191
 C        -0.702924         2.258513         1.552792
 H         1.505014         3.248288         0.925071
 H         1.265784         0.734245         3.710751
 H        -0.372705         1.501273         3.854029
 H        -0.390354        -0.974530         2.466869
 H        -2.368985         0.889778         1.499958
 H        -0.892912        -0.657455        -0.119555
 H        -0.688728         0.810051        -0.861008
 H         2.374015         0.367664         0.365146
 H        -0.870223         2.994922         0.753366
 H        -1.134299         2.755114         2.409203
