19
Iteration:   968charge 0 multiplicity 1
 O         1.789929         2.659574         1.970281
 C         0.638506         1.784411         1.995181
 C         0.483161         0.931406         3.235852
 C        -0.357553         0.070795         2.278265
 C        -1.379519         0.959944         1.331314
 C        -0.517775         0.384614         0.058356
 C         0.573891         0.367831         1.070566
 O         1.812456        -0.123224         0.485370
 C        -0.744475         2.375139         1.482719
 H         1.436211         3.573859         2.042306
 H         1.363570         0.435300         3.595601
 H        -0.078283         1.438846         3.970267
 H        -0.667951        -0.935609         2.396999
 H        -2.387617         0.848480         1.434300
 H        -0.851468        -0.621420        -0.129100
 H        -0.578200         0.941634        -0.821650
 H         2.355442         0.739445         0.410148
 H        -0.662886         2.996799         0.627498
 H        -1.331814         2.892431         2.269553
