19
Iteration:  4139
 O         1.841294         2.602956         1.482047
 C         0.615241         1.845318         1.878470
 C         0.405739         0.989181         3.191935
 C        -0.431505         0.071755         2.270247
 C        -1.406097         0.842409         1.363050
 C        -0.540123         0.407643         0.075082
 C         0.625298         0.438392         1.141979
 O         1.905977        -0.044258         1.025391
 C        -0.820930         2.309877         1.429716
 H         2.210780         2.922234         2.319528
 H         1.357516         0.548196         3.609941
 H        -0.063929         1.563603         3.951424
 H        -0.497724        -0.923058         2.519579
 H        -2.524141         0.669914         1.321844
 H        -0.871304        -0.631579        -0.070562
 H        -0.359864         0.927842        -0.897248
 H         2.252097         0.745024         0.684708
 H        -0.950586         2.927182         0.544929
 H        -1.293189         2.842984         2.202512
