19
Iteration:  4389charge 0 multiplicity 1
 O         1.728755         2.711588         1.646608
 C         0.687204         1.748504         1.770407
 C         0.309594         1.175873         3.264059
 C        -0.386919         0.200641         2.325303
 C        -1.390540         0.831690         1.327467
 C        -0.582253         0.292437         0.141061
 C         0.714359         0.453118         1.092358
 O         1.937363        -0.249554         0.864594
 C        -0.739614         2.250592         1.430539
 H         1.576723         3.409678         2.300793
 H         1.365352         0.865328         3.616326
 H        -0.180709         1.881140         3.995242
 H        -0.675107        -0.763558         2.773289
 H        -2.546998         0.694698         1.275368
 H        -0.753209        -0.667570        -0.262639
 H        -0.622908         0.926978        -0.806348
 H         2.461003         0.479747         0.453321
 H        -0.846030         2.915588         0.461289
 H        -1.187002         2.809409         2.311741
