19
Iteration:  3608
 O         1.825772         2.517525         1.731496
 C         0.643380         1.803547         1.872738
 C         0.312962         1.156146         3.253901
 C        -0.398454         0.110726         2.247570
 C        -1.361246         0.845188         1.391918
 C        -0.538756         0.286968         0.101907
 C         0.623957         0.468344         1.113122
 O         1.895441        -0.057060         0.608517
 C        -0.742557         2.330491         1.510536
 H         1.721239         3.507677         1.745483
 H         0.996713         0.671340         4.102393
 H        -0.518038         1.609132         3.844111
 H        -0.717374        -0.805868         2.664614
 H        -2.511141         0.758456         1.538819
 H        -0.750055        -0.789087         0.068662
 H        -0.386585         0.834204        -0.789305
 H         2.501386         0.507321         1.055956
 H        -0.770340         2.786894         0.540300
 H        -0.984809         2.917686         2.390509
