19
Iteration:  3866charge 0 multiplicity 1
 O         1.611920         2.844666         1.653220
 C         0.622176         1.916836         1.958432
 C         0.517203         1.015833         3.177771
 C        -0.370578         0.170893         2.176564
 C        -1.313417         0.937215         1.324696
 C        -0.557443         0.347330         0.054883
 C         0.660582         0.454837         1.009868
 O         1.848343        -0.347001         1.011386
 C        -0.803885         2.288552         1.528887
 H         2.476245         2.405837         1.809677
 H         1.479335         0.437921         3.223072
 H         0.131930         1.229322         4.175414
 H        -0.582817        -0.882418         2.315359
 H        -2.416518         0.813482         1.328469
 H        -0.815720        -0.688363        -0.129060
 H        -0.562026         0.915878        -0.830293
 H         2.498709         0.027816         0.456350
 H        -0.676596         2.701984         0.496460
 H        -1.375495         2.895680         2.268946
