19
Iteration:   402charge 0 multiplicity 1
 O         1.600902         2.752839         1.741737
 C         0.584851         1.801160         1.977435
 C         0.476973         0.851110         3.093793
 C        -0.269347        -0.027969         2.114489
 C        -1.338611         0.942393         1.354223
 C        -0.547115         0.674844         0.042663
 C         0.610055         0.379381         0.984964
 O         1.941649        -0.115601         0.863434
 C        -0.796586         2.334112         1.680770
 H         2.375654         2.358603         1.297053
 H         1.372283         0.347716         3.334288
 H         0.124393         1.203053         4.082636
 H        -0.609351        -1.122688         2.267391
 H        -2.339701         0.922230         1.466744
 H        -1.023536        -0.151618        -0.457523
 H        -0.318345         1.401991        -0.696663
 H         1.865803        -0.993150         1.194041
 H        -0.905220         2.936433         0.822900
 H        -1.281022         2.841864         2.541576
