19
Iteration:  2824
 O         1.605981         2.810246         1.649848
 C         0.608295         1.838490         1.887014
 C         0.426246         1.064563         3.168693
 C        -0.329162         0.027812         2.296085
 C        -1.327795         0.921466         1.246328
 C        -0.493157         0.412307         0.081212
 C         0.621263         0.372911         1.119069
 O         1.850989        -0.236953         0.922683
 C        -0.736884         2.332130         1.565114
 H         2.468005         2.359868         1.852172
 H         1.388762         0.522162         3.217237
 H         0.064411         1.610138         4.040617
 H        -0.713231        -0.950241         2.373487
 H        -2.382051         0.825740         1.363835
 H        -0.692378        -0.691959        -0.177249
 H        -0.243602         1.057285        -0.806123
 H         2.161453        -0.055983        -0.026772
 H        -0.713974         3.121798         0.763935
 H        -1.296931         2.786080         2.396944
