19
Iteration:  2021charge 0 multiplicity 1
 O         1.822957         2.612217         1.975689
 C         0.631439         1.872021         1.930241
 C         0.382479         1.064961         3.122607
 C        -0.336582        -0.002361         2.257334
 C        -1.361333         0.888468         1.392044
 C        -0.611253         0.336445         0.110003
 C         0.587392         0.394035         1.029228
 O         1.855790        -0.013108         0.612987
 C        -0.713239         2.263291         1.435639
 H         1.827191         3.377637         1.365309
 H         1.295534         0.595127         3.477636
 H        -0.154570         1.506886         3.960980
 H        -0.822532        -0.852213         2.721197
 H        -2.554491         0.803113         1.439893
 H        -0.745617        -0.649555        -0.273600
 H        -0.616162         1.169153        -0.593421
 H         2.500193         0.221283         1.238703
 H        -0.710523         2.694155         0.423717
 H        -1.236009         3.130535         2.011170
