19
Iteration:  3663
 O         1.748866         2.667960         1.606546
 C         0.606194         1.761172         1.863853
 C         0.492046         1.048016         3.166999
 C        -0.380499         0.072346         2.269043
 C        -1.328063         0.844599         1.313991
 C        -0.595286         0.454483         0.070482
 C         0.588715         0.527814         1.051157
 O         1.850788        -0.182247         0.984869
 C        -0.735254         2.254917         1.519189
 H         1.619252         3.427906         2.200173
 H         1.439243         0.396064         3.215797
 H         0.119427         1.479281         4.099176
 H        -0.676497        -0.887572         2.584930
 H        -2.454884         0.770157         1.333257
 H        -0.839642        -0.473272        -0.427723
 H        -0.636429         1.158105        -0.718561
 H         2.492064         0.519753         0.785851
 H        -0.609194         2.825383         0.652617
 H        -1.236460         2.834727         2.269296
