19
Iteration:  3827
 O         1.623264         2.806602         1.586029
 C         0.618479         1.814123         1.864181
 C         0.381413         1.098231         3.179813
 C        -0.330952         0.074201         2.270301
 C        -1.295698         0.910928         1.317880
 C        -0.503963         0.464960         0.045610
 C         0.612079         0.362388         1.068644
 O         1.925466        -0.281591         0.990442
 C        -0.776296         2.269859         1.602536
 H         2.442583         2.283289         1.752758
 H         1.284537         0.621325         3.591890
 H        -0.071751         1.804155         3.899848
 H        -0.703371        -0.880577         2.577512
 H        -2.380507         0.816678         1.350356
 H        -1.001747        -0.380842        -0.502766
 H        -0.307604         1.262908        -0.787006
 H         2.250925        -0.142250         0.008234
 H        -0.876521         2.918764         0.762171
 H        -1.293042         2.749819         2.455908
