19
Iteration:  3598charge 0 multiplicity 1
 O         1.886159         2.576853         1.730873
 C         0.680859         1.777569         1.876034
 C         0.282383         1.078932         3.224509
 C        -0.401837         0.084277         2.371252
 C        -1.378177         0.850031         1.382473
 C        -0.515010         0.373923         0.147847
 C         0.627051         0.444159         1.058767
 O         1.843539        -0.054894         0.649455
 C        -0.783915         2.286941         1.473373
 H         1.503987         3.484879         1.748557
 H         1.258318         0.740143         3.777707
 H        -0.263898         1.811177         3.845427
 H        -0.791333        -0.877291         2.637428
 H        -2.489504         0.591668         1.315070
 H        -0.603927        -0.683989        -0.142973
 H        -0.483321         0.922192        -0.748091
 H         2.554254         0.418846         0.984740
 H        -0.671764         2.781286         0.510108
 H        -1.233638         3.090795         2.086458
