19
Iteration:  2224
 O         1.763475         2.605143         1.707804
 C         0.605352         1.828723         1.898638
 C         0.414879         0.998326         3.168566
 C        -0.383071         0.035298         2.259235
 C        -1.362760         0.885709         1.262196
 C        -0.534954         0.409381         0.082287
 C         0.610466         0.392410         1.113773
 O         1.911056        -0.075670         0.828768
 C        -0.791559         2.347404         1.553349
 H         1.675266         3.254883         0.983784
 H         1.399012         0.680992         3.675597
 H        -0.146249         1.511461         3.991103
 H        -0.727677        -1.023602         2.422036
 H        -2.394279         0.601300         1.246786
 H        -1.019116        -0.530177        -0.239593
 H        -0.407112         1.081436        -0.683733
 H         2.640649         0.473847         1.327883
 H        -0.786864         3.155196         0.736543
 H        -1.138821         2.938185         2.411976
