19
Iteration:   985
 O         1.785686         2.576170         1.902794
 C         0.646421         1.789297         1.901971
 C         0.361418         0.941430         3.210322
 C        -0.338378         0.003990         2.248312
 C        -1.344107         0.881474         1.353254
 C        -0.625042         0.514734         0.089893
 C         0.641508         0.471958         1.019494
 O         1.839032        -0.055841         0.641023
 C        -0.712115         2.323092         1.567973
 H         1.651357         3.294739         1.252788
 H         1.335639         0.501356         3.572072
 H         0.035204         1.292126         4.259109
 H        -0.682519        -1.013743         2.552010
 H        -2.509620         0.750249         1.401056
 H        -0.815871        -0.526792        -0.286648
 H        -0.504900         1.315613        -0.729025
 H         2.431260         0.616151         0.269836
 H        -0.719457         2.715414         0.502100
 H        -1.185817         3.001269         2.330448
