19
Iteration:  3770charge 0 multiplicity 1
 O         1.752616         2.747264         1.772356
 C         0.674046         1.865378         1.849359
 C         0.345212         1.056792         3.236675
 C        -0.322213         0.146987         2.243065
 C        -1.402566         0.856870         1.295423
 C        -0.636773         0.155051         0.099613
 C         0.601368         0.475822         0.991418
 O         1.902403        -0.144832         0.875373
 C        -0.692436         2.363489         1.506586
 H         2.584771         2.275533         1.841538
 H         1.345190         0.811987         3.713530
 H        -0.210042         1.671757         3.925261
 H        -0.722362        -0.786438         2.410124
 H        -2.513936         0.749786         1.196791
 H        -0.793414        -0.987290         0.117001
 H        -0.807338         0.650409        -0.985173
 H         2.243611         0.481044         0.279967
 H        -0.807517         2.890491         0.538732
 H        -1.013147         2.952418         2.451301
