19
Iteration:   865charge 0 multiplicity 1
 O         1.708232         2.711301         1.677981
 C         0.639313         1.746817         1.916219
 C         0.417385         0.831836         3.194330
 C        -0.349362        -0.020038         2.181390
 C        -1.296481         0.945883         1.293444
 C        -0.612339         0.524725         0.008479
 C         0.577209         0.500220         1.055515
 O         1.944810        -0.045689         0.917153
 C        -0.735172         2.346514         1.724879
 H         1.910292         2.719849         0.718607
 H         1.197458         0.128871         3.556605
 H        -0.186139         1.412700         3.978661
 H        -0.767503        -1.052178         2.404230
 H        -2.461730         0.855843         1.560851
 H        -0.624647        -0.519736        -0.444829
 H        -0.537739         1.269651        -0.932143
 H         1.902073        -0.560785         0.081846
 H        -0.819700         3.165158         0.909207
 H        -1.155957         2.816905         2.678268
