19
Iteration:  1724charge 0 multiplicity 1
 O         1.753334         2.647485         1.878738
 C         0.637960         1.829616         1.938624
 C         0.453099         0.964272         3.197623
 C        -0.352785         0.077612         2.270625
 C        -1.365311         0.894569         1.330101
 C        -0.622017         0.358651         0.075177
 C         0.603812         0.402456         1.049081
 O         1.850901         0.103980         0.647060
 C        -0.724914         2.320049         1.511681
 H         2.379112         2.153006         2.429134
 H         1.418412         0.487537         3.506291
 H         0.006552         1.459226         4.053948
 H        -0.522230        -0.934812         2.701051
 H        -2.387718         0.657344         1.376979
 H        -0.972846        -0.654017        -0.204976
 H        -0.638041         1.001207        -0.889781
 H         1.863096        -0.731679         0.031762
 H        -0.496346         2.713451         0.507376
 H        -1.291231         3.064616         2.116117
