19
Iteration:   588charge 0 multiplicity 1
 O         1.729307         2.730914         1.688360
 C         0.631006         1.827722         1.928605
 C         0.553019         0.771051         3.136656
 C        -0.347824         0.035856         2.136358
 C        -1.383175         0.996192         1.284100
 C        -0.520958         0.547999         0.019353
 C         0.613642         0.446950         1.027625
 O         1.835677        -0.171832         0.918905
 C        -0.845035         2.331982         1.766409
 H         1.651755         3.313830         0.904228
 H         1.355780         0.049459         3.265703
 H         0.129236         0.997680         4.116237
 H        -0.702746        -0.999786         2.287944
 H        -2.385898         0.812791         1.482892
 H        -0.896605        -0.446143        -0.168835
 H        -0.382138         1.112766        -0.912779
 H         2.492344         0.332206         0.460457
 H        -0.929408         3.136322         1.046619
 H        -1.194547         2.643459         2.731756
