19
Iteration:  4303
 O         1.719731         2.631096         1.432447
 C         0.625705         1.869324         1.834255
 C         0.330713         1.018662         3.200836
 C        -0.289057         0.036293         2.267100
 C        -1.308775         0.911924         1.316266
 C        -0.494866         0.401013         0.104078
 C         0.643167         0.390068         1.160117
 O         1.894844        -0.191529         1.001594
 C        -0.875899         2.402608         1.504853
 H         2.102922         3.032103         2.250239
 H         1.224462         0.723862         3.808957
 H        -0.194094         1.626716         3.896748
 H        -0.650040        -0.996447         2.542798
 H        -2.432937         0.608362         1.369466
 H        -0.790934        -0.634425        -0.034847
 H        -0.245383         1.154958        -0.696031
 H         2.532512         0.464503         0.789008
 H        -1.103458         3.044381         0.601460
 H        -1.262065         2.966066         2.382708
