19
Iteration:  1231charge 0 multiplicity 1
 O         1.799904         2.776551         1.822101
 C         0.687538         1.819785         1.941207
 C         0.334979         0.928812         3.208658
 C        -0.280226        -0.004566         2.152623
 C        -1.344955         0.977411         1.356862
 C        -0.675493         0.374430         0.121993
 C         0.647879         0.408234         0.975172
 O         1.838280        -0.122282         0.698587
 C        -0.677781         2.298611         1.564169
 H         1.551267         3.513832         2.402382
 H         1.255548         0.285293         3.551234
 H        -0.371034         1.405061         3.922929
 H        -0.625323        -1.145960         2.365691
 H        -2.490355         0.807660         1.566065
 H        -1.062309        -0.716402         0.007921
 H        -0.923044         0.855850        -0.853536
 H         2.543413         0.470662         0.303779
 H        -0.656251         2.900937         0.653295
 H        -1.141973         2.912138         2.411601
