19
Iteration:   836
 O         1.815891         2.544215         1.923143
 C         0.584250         1.835937         1.904139
 C         0.443260         0.997926         3.136552
 C        -0.284266         0.005369         2.248568
 C        -1.329118         0.883172         1.332448
 C        -0.630534         0.506906         0.101981
 C         0.598823         0.498406         1.021200
 O         1.874681        -0.099582         0.762779
 C        -0.826666         2.333218         1.531255
 H         1.892250         3.144102         1.149779
 H         1.351455         0.496581         3.351478
 H        -0.029040         1.484224         3.992519
 H        -0.534673        -1.037839         2.498427
 H        -2.475980         0.763646         1.485839
 H        -0.734153        -0.517898        -0.230642
 H        -0.623466         1.158308        -0.738628
 H         2.212809         0.310652        -0.134126
 H        -0.841876         2.827017         0.548520
 H        -1.346110         2.910961         2.316149
