19
Iteration:  3228
 O         1.845550         2.678324         1.603503
 C         0.677369         1.824863         1.854079
 C         0.307026         1.089944         3.176373
 C        -0.337060         0.014314         2.250037
 C        -1.339302         0.762998         1.331922
 C        -0.528446         0.480893         0.054519
 C         0.566431         0.433979         1.141699
 O         1.833406        -0.205676         0.861402
 C        -0.751309         2.379420         1.595707
 H         1.538666         3.499300         1.162539
 H         1.152918         0.505602         3.644973
 H        -0.238482         1.630629         4.041574
 H        -0.370856        -1.028303         2.513404
 H        -2.451716         0.448397         1.458720
 H        -0.784084        -0.544699        -0.336393
 H        -0.536939         1.189999        -0.754507
 H         2.431407         0.385833         1.268328
 H        -0.928582         3.039822         0.757857
 H        -1.220972         2.856506         2.463538
