19
Iteration:   229
 O         1.739506         2.641951         1.861331
 C         0.623205         1.823667         1.931252
 C         0.360380         0.808080         3.270390
 C        -0.258560         0.020818         2.186319
 C        -1.289868         0.950435         1.346797
 C        -0.555984         0.501626         0.027448
 C         0.675815         0.492153         1.008221
 O         1.841823        -0.150435         0.722080
 C        -0.793672         2.369743         1.583859
 H         1.420542         3.560545         1.821101
 H         1.251247         0.391957         3.678601
 H        -0.362569         1.164588         4.011861
 H        -0.484121        -0.943703         2.197647
 H        -2.339057         0.735030         1.421311
 H        -0.925566        -0.449205        -0.367372
 H        -0.459215         1.272227        -0.797740
 H         2.241680         0.322735        -0.087640
 H        -0.890642         2.941756         0.641098
 H        -1.296594         2.924656         2.416470
