19
Iteration:  2920charge 0 multiplicity 1
 O         1.800602         2.709032         1.789799
 C         0.627883         1.693841         1.850988
 C         0.334965         1.073440         3.276065
 C        -0.368248        -0.003816         2.318540
 C        -1.372494         0.915928         1.393240
 C        -0.536949         0.421160         0.086613
 C         0.577876         0.365116         1.041623
 O         1.876301        -0.115789         0.701125
 C        -0.720802         2.307364         1.474909
 H         1.621951         3.367379         1.057446
 H         1.307905         0.714352         3.644350
 H        -0.293433         1.702581         3.875031
 H        -0.466246        -0.972498         2.832984
 H        -2.375556         0.802367         1.456195
 H        -0.836674        -0.621868        -0.163567
 H        -0.544223         1.174474        -0.698316
 H         2.477212         0.607671         0.855879
 H        -0.557558         2.684331         0.439955
 H        -1.084105         3.152686         2.058503
