19
Iteration:  1500charge 0 multiplicity 1
 O         1.590293         2.730752         1.700916
 C         0.590058         1.791131         1.896092
 C         0.517379         0.891124         3.138863
 C        -0.419838         0.035925         2.231977
 C        -1.291042         0.938055         1.281729
 C        -0.408385         0.591636         0.108617
 C         0.649137         0.400701         1.135577
 O         1.860081        -0.223469         0.912488
 C        -0.820015         2.364268         1.623819
 H         2.123904         2.708174         0.880088
 H         1.610181         0.600689         3.209847
 H         0.207159         1.431229         4.032319
 H        -0.897407        -0.908152         2.422826
 H        -2.485727         0.787720         1.199290
 H        -0.632723        -0.321180        -0.478256
 H        -0.243758         1.236688        -0.725010
 H         1.834135        -0.255482        -0.035489
 H        -0.837550         2.963632         0.631308
 H        -1.110838         2.875053         2.578910
