19
Iteration:  4062charge 0 multiplicity 1
 O         1.674274         2.748888         1.751588
 C         0.612607         1.838205         1.844405
 C         0.489400         1.102286         3.182273
 C        -0.293885         0.110321         2.260825
 C        -1.299567         0.897292         1.328059
 C        -0.569956         0.250402         0.144113
 C         0.634419         0.443104         1.052577
 O         1.787160        -0.282587         0.876857
 C        -0.768358         2.377083         1.405114
 H         1.563000         3.323353         2.507954
 H         1.454536         0.658881         3.584092
 H        -0.026017         1.632331         3.965659
 H        -0.516430        -0.894507         2.403889
 H        -2.387588         0.732779         1.307278
 H        -0.751174        -0.744664        -0.171122
 H        -0.571858         0.716964        -0.888975
 H         2.552368         0.374593         0.683358
 H        -0.644761         2.812166         0.408595
 H        -1.129727         3.087263         2.051339
