19
Iteration:  4372
 O         1.750731         2.791688         1.719638
 C         0.633649         1.940002         1.871855
 C         0.390387         1.185996         3.140012
 C        -0.279515         0.089256         2.295825
 C        -1.291636         0.859778         1.333224
 C        -0.577946         0.257080         0.100195
 C         0.614400         0.345304         1.063668
 O         1.840463        -0.300509         0.878271
 C        -0.783514         2.317215         1.410354
 H         1.674143         3.532896         2.359010
 H         1.138775         0.729310         3.746208
 H        -0.276598         1.691843         3.809152
 H        -0.549404        -0.978012         2.570443
 H        -2.308029         0.723183         1.572214
 H        -0.836577        -0.863121         0.059299
 H        -0.634315         0.716821        -0.897298
 H         2.553149         0.274559         0.615947
 H        -0.804233         2.762960         0.460474
 H        -1.296582         3.000550         2.067943
