19
Iteration:  1246charge 0 multiplicity 1
 O         1.819286         2.660756         1.945348
 C         0.680261         1.845469         1.884286
 C         0.384692         0.977196         3.154309
 C        -0.327479         0.058892         2.188554
 C        -1.344776         0.890671         1.407357
 C        -0.661273         0.299478         0.125927
 C         0.603461         0.506455         0.988192
 O         1.901501        -0.140967         0.634982
 C        -0.764486         2.386054         1.536502
 H         1.650212         3.313601         2.652928
 H         1.250595         0.731142         3.706420
 H        -0.340216         1.439269         3.817925
 H        -0.567148        -1.017955         2.320671
 H        -2.371199         0.838891         1.574548
 H        -0.763698        -0.768373         0.009632
 H        -0.688234         0.651064        -0.905455
 H         2.048425         0.363380        -0.252427
 H        -0.803184         2.921247         0.566891
 H        -1.198524         3.027014         2.317228
