19
Iteration:  2243
 O         1.654492         2.779690         1.794821
 C         0.613936         1.754177         1.855875
 C         0.472998         1.005147         3.133917
 C        -0.346374         0.075366         2.245061
 C        -1.323530         0.927340         1.371630
 C        -0.522339         0.536724         0.012225
 C         0.613432         0.357315         1.008469
 O         1.867980        -0.278974         0.959931
 C        -0.774927         2.267436         1.501603
 H         1.401407         3.356142         1.047325
 H         1.397760         0.555176         3.409524
 H         0.200062         1.369290         4.102258
 H        -0.536116        -1.024739         2.643581
 H        -2.373982         0.835929         1.528016
 H        -0.614240        -0.423042        -0.478821
 H        -0.505774         1.440965        -0.722257
 H         2.514232         0.499559         0.619899
 H        -0.913511         2.711543         0.506068
 H        -1.144782         2.966308         2.247159
