19
Iteration:   567
 O         1.843479         2.609830         1.609829
 C         0.702811         1.807165         1.945153
 C         0.428544         0.895944         3.167598
 C        -0.342631        -0.024828         2.118681
 C        -1.361459         0.828246         1.308491
 C        -0.573518         0.627405         0.001194
 C         0.619764         0.575315         1.020768
 O         1.818394        -0.162673         0.922890
 C        -0.874391         2.287488         1.797311
 H         1.561380         3.461328         1.228541
 H         1.392422         0.480232         3.512006
 H        -0.072578         1.339407         4.023446
 H        -0.413177        -1.097015         2.157878
 H        -2.476979         0.757004         1.339688
 H        -0.726757        -0.321571        -0.392764
 H        -0.673926         1.436252        -0.662983
 H         2.522624         0.574486         0.668522
 H        -1.040414         3.080448         1.047783
 H        -1.262643         2.554129         2.759369
