19
Iteration:   596charge 0 multiplicity 1
 O         1.613021         2.734333         1.778802
 C         0.690302         1.829134         1.906250
 C         0.549862         0.805896         3.102006
 C        -0.380034         0.014655         2.168902
 C        -1.335832         0.969753         1.293592
 C        -0.544950         0.519764         0.001680
 C         0.587083         0.438728         1.032335
 O         1.848718        -0.206210         0.881196
 C        -0.742184         2.361902         1.730054
 H         1.638620         3.152575         0.902673
 H         1.510478         0.308247         3.193915
 H         0.256179         1.147217         4.158380
 H        -0.702988        -1.106992         2.429831
 H        -2.392109         0.946179         1.415448
 H        -0.971741        -0.539828        -0.271598
 H        -0.430569         1.307506        -0.848971
 H         2.327168         0.544815         0.448541
 H        -0.756542         3.163481         1.015648
 H        -1.174372         2.734333         2.699348
