19
Iteration:  2350charge 0 multiplicity 1
 O         1.841848         2.658257         1.757596
 C         0.600770         1.880168         1.881010
 C         0.366403         1.034054         3.210303
 C        -0.343805         0.052171         2.207013
 C        -1.390811         0.885639         1.296569
 C        -0.604104         0.260640         0.068021
 C         0.617055         0.476515         1.014370
 O         1.901688        -0.128005         0.860052
 C        -0.764820         2.370369         1.549761
 H         1.774010         3.272724         1.003668
 H         1.313156         0.589673         3.410240
 H        -0.273488         1.408045         4.043457
 H        -0.612699        -0.992316         2.607927
 H        -2.481694         0.776048         1.387939
 H        -0.846091        -0.778578         0.043080
 H        -0.496482         0.650749        -0.918788
 H         2.615099         0.595856         1.097782
 H        -0.951022         3.035511         0.728030
 H        -1.115856         2.830987         2.504745
