19
Iteration:  2858charge 0 multiplicity 1
 O         1.789082         2.658480         1.571937
 C         0.617618         1.814008         1.815599
 C         0.380073         1.005645         3.194484
 C        -0.340407         0.049103         2.210846
 C        -1.312738         0.875020         1.381455
 C        -0.688644         0.458066         0.047279
 C         0.663978         0.423140         1.040110
 O         1.884529        -0.113185         0.998972
 C        -0.811513         2.291516         1.506046
 H         2.258602         2.869745         2.417145
 H         1.357646         0.593994         3.470190
 H         0.018250         1.522358         4.108259
 H        -0.529275        -0.976857         2.365836
 H        -2.404102         0.801028         1.640631
 H        -0.760005        -0.613683        -0.299789
 H        -0.684698         1.117034        -0.852561
 H         2.405536         0.624618         1.213946
 H        -0.747049         2.902245         0.580275
 H        -1.209864         2.822556         2.378177
