19
Iteration:  2111
 O         1.611834         2.853134         1.757538
 C         0.668372         1.886120         1.877555
 C         0.507944         1.012830         3.153182
 C        -0.315168         0.014806         2.136323
 C        -1.293824         0.942271         1.284748
 C        -0.435061         0.526375        -0.024554
 C         0.666729         0.409622         1.039914
 O         1.754045        -0.458690         0.915052
 C        -0.823423         2.313739         1.738325
 H         1.208991         3.560924         1.224492
 H         1.322953         0.343356         3.353232
 H         0.255230         1.582132         4.080774
 H        -0.655089        -1.010639         2.359504
 H        -2.370374         0.625931         1.181956
 H        -0.655804        -0.427148        -0.364932
 H        -0.291415         1.178195        -0.864242
 H         2.436033         0.068456         0.590043
 H        -0.941713         3.167085         1.051284
 H        -1.286239         2.713940         2.680700
