19
Iteration:  2943charge 0 multiplicity 1
 O         1.743466         2.716564         1.813875
 C         0.625096         1.902679         1.867599
 C         0.426447         1.009766         3.168645
 C        -0.319253         0.101254         2.193335
 C        -1.300569         0.865571         1.325402
 C        -0.646995         0.340609         0.128441
 C         0.620043         0.471811         1.026052
 O         1.832628        -0.226377         0.788719
 C        -0.757945         2.330828         1.540512
 H         2.055057         3.084143         0.985737
 H         1.352814         0.565645         3.541324
 H        -0.252936         1.505628         3.842776
 H        -0.538323        -0.908628         2.500520
 H        -2.312361         0.735110         1.477655
 H        -0.814920        -0.773839        -0.043941
 H        -0.600431         1.014709        -0.751525
 H         2.616841         0.161272         1.333007
 H        -0.606070         3.014353         0.666755
 H        -1.296557         2.876027         2.321385
