19
Iteration:  3644charge 0 multiplicity 1
 O         1.818875         2.571413         1.702715
 C         0.625973         1.839210         1.856443
 C         0.461490         1.022302         3.186675
 C        -0.379174         0.070048         2.282481
 C        -1.429184         0.898983         1.362591
 C        -0.541914         0.364259         0.094164
 C         0.611621         0.403598         1.101930
 O         1.861395        -0.061248         0.825469
 C        -0.780313         2.335415         1.437776
 H         1.776451         3.497578         2.036253
 H         1.316922         0.500093         3.561839
 H        -0.124418         1.491124         4.054403
 H        -0.618379        -1.012041         2.536133
 H        -2.479846         0.747267         1.562883
 H        -0.728477        -0.687235        -0.114332
 H        -0.540525         0.967104        -0.795168
 H         2.480240         0.632801         0.783614
 H        -0.980093         2.802458         0.440371
 H        -1.219062         3.075149         2.129990
