19
Iteration:  3091
 O         1.732192         2.657469         1.627295
 C         0.657178         1.761692         1.897134
 C         0.353653         1.028278         3.242183
 C        -0.316485         0.070051         2.200468
 C        -1.356405         0.903568         1.341028
 C        -0.572609         0.400053         0.109711
 C         0.654500         0.435807         1.063963
 O         1.853798        -0.106039         0.862487
 C        -0.691843         2.342032         1.548083
 H         1.502613         2.877116         0.712581
 H         1.136402         0.533844         3.789074
 H        -0.308162         1.461614         3.963889
 H        -0.477818        -0.998300         2.499536
 H        -2.424894         0.717525         1.449190
 H        -0.987006        -0.584782        -0.076353
 H        -0.515214         0.970898        -0.875123
 H         2.503619         0.467699         1.341538
 H        -0.817538         2.939182         0.649800
 H        -1.133143         2.883156         2.392079
