19
Iteration:  2343charge 0 multiplicity 1
 O         1.812881         2.702969         1.807681
 C         0.650353         1.836675         1.914466
 C         0.382925         1.027285         3.181952
 C        -0.307798         0.082689         2.235753
 C        -1.375864         0.900645         1.299107
 C        -0.600924         0.279521         0.097855
 C         0.646446         0.481131         1.053959
 O         1.852306        -0.171274         0.839349
 C        -0.767662         2.349985         1.488133
 H         1.581982         3.159254         0.980018
 H         1.384847         0.681495         3.587357
 H        -0.272853         1.411006         3.964842
 H        -0.517662        -1.036101         2.349315
 H        -2.430100         0.719418         1.370981
 H        -0.881907        -0.807454        -0.050286
 H        -0.784235         0.841586        -0.964565
 H         2.483738         0.594413         0.851955
 H        -0.811327         2.958760         0.567665
 H        -1.333023         2.862789         2.257984
