19
Iteration:  2906
 O         1.773801         2.560818         1.726795
 C         0.641997         1.876755         1.946093
 C         0.365243         1.065999         3.193713
 C        -0.406805         0.095189         2.380483
 C        -1.358426         0.855146         1.317689
 C        -0.566090         0.381327         0.133746
 C         0.660155         0.348906         1.115526
 O         1.919400        -0.100795         0.656808
 C        -0.732375         2.336235         1.473370
 H         1.516787         3.457314         1.497116
 H         1.182806         0.569626         3.744474
 H        -0.173560         1.570612         4.021743
 H        -0.926343        -0.884511         2.636550
 H        -2.498602         0.743365         1.309253
 H        -0.871232        -0.526005        -0.289487
 H        -0.445653         1.083709        -0.663561
 H         2.479995         0.749868         0.627860
 H        -0.740862         2.828380         0.510459
 H        -1.265221         2.911121         2.253878
