19
Iteration:  3906charge 0 multiplicity 1
 O         1.711662         2.742000         1.750870
 C         0.694791         1.860109         1.854050
 C         0.349105         1.182386         3.158948
 C        -0.373282         0.133012         2.281873
 C        -1.356926         0.823945         1.368853
 C        -0.523749         0.344234         0.102863
 C         0.654024         0.342926         1.091758
 O         1.847302        -0.228185         0.750050
 C        -0.712072         2.263063         1.464608
 H         2.185511         2.784756         2.597473
 H         1.179367         0.809436         3.722045
 H        -0.326985         1.785405         3.858645
 H        -0.717318        -0.902896         2.722304
 H        -2.426758         0.792837         1.581804
 H        -0.805977        -0.736501        -0.048468
 H        -0.611037         1.089918        -0.783063
 H         2.392352         0.481035         0.263762
 H        -0.862058         2.756199         0.500035
 H        -1.145737         2.907187         2.203601
