19
Iteration:  3668charge 0 multiplicity 1
 O         1.723605         2.690408         1.584075
 C         0.618766         1.804428         1.866264
 C         0.544442         1.018721         3.173991
 C        -0.355287         0.043464         2.269449
 C        -1.362719         0.870135         1.264392
 C        -0.589694         0.479173         0.049582
 C         0.627652         0.454241         1.034873
 O         1.831873        -0.195616         1.010355
 C        -0.752242         2.280824         1.553630
 H         1.670375         3.442196         2.214457
 H         1.416018         0.482558         3.493727
 H        -0.011844         1.407728         4.058218
 H        -0.754273        -0.955699         2.659984
 H        -2.417588         0.717251         1.306297
 H        -0.872009        -0.552725        -0.260663
 H        -0.676386         1.266086        -0.764652
 H         2.600042         0.389865         0.797350
 H        -0.787627         2.946726         0.607045
 H        -1.238409         2.909718         2.342024
