19
Iteration:  4454
 O         1.783500         2.653824         1.481139
 C         0.652063         1.784939         1.760645
 C         0.400426         1.129064         3.161203
 C        -0.390757         0.085129         2.271930
 C        -1.356399         0.847618         1.299725
 C        -0.585984         0.344924         0.107246
 C         0.629278         0.385404         1.081919
 O         1.931963        -0.108443         1.116620
 C        -0.811080         2.311147         1.549205
 H         1.770923         3.432973         2.081543
 H         1.328409         0.509928         3.445540
 H        -0.213244         1.746755         3.882881
 H        -0.822475        -0.860543         2.632627
 H        -2.476674         0.501496         1.427226
 H        -0.936484        -0.550180        -0.415759
 H        -0.479539         0.986943        -0.811072
 H         2.462659         0.664420         0.910466
 H        -0.837113         2.786497         0.495024
 H        -1.103456         2.780282         2.517824
