19
Iteration:  2220charge 0 multiplicity 1
 O         1.808072         2.585077         1.698971
 C         0.597407         1.811600         1.900122
 C         0.391676         1.011816         3.191692
 C        -0.387095         0.038345         2.249233
 C        -1.349333         0.922087         1.246483
 C        -0.524155         0.382555         0.113860
 C         0.613521         0.399732         1.102113
 O         1.904041        -0.031977         0.809333
 C        -0.810656         2.334784         1.569469
 H         1.677209         3.204548         0.964508
 H         1.278748         0.744426         3.662468
 H        -0.172083         1.469526         3.987499
 H        -0.692596        -1.039948         2.422485
 H        -2.407746         0.632266         1.221304
 H        -0.911334        -0.606963        -0.102823
 H        -0.448222         1.044360        -0.844874
 H         2.497647         0.403971         1.368003
 H        -0.849620         3.030965         0.748703
 H        -1.152152         2.841603         2.477598
