19
Iteration:  1434
 O         1.795257         2.652864         1.912820
 C         0.630081         1.837673         1.838926
 C         0.501987         0.982992         3.139990
 C        -0.379454         0.044634         2.254138
 C        -1.355770         0.889918         1.304586
 C        -0.564601         0.383353         0.073572
 C         0.586742         0.451187         1.055695
 O         1.866623        -0.089070         0.801569
 C        -0.752654         2.380139         1.521620
 H         1.389490         3.526369         1.885937
 H         1.513340         0.573873         3.272432
 H         0.052873         1.475877         4.005840
 H        -0.667435        -0.927848         2.560861
 H        -2.485732         0.600144         1.368163
 H        -1.033944        -0.561881        -0.294905
 H        -0.649614         1.064012        -0.836172
 H         1.800421        -0.834628         0.120595
 H        -0.700387         2.790984         0.458170
 H        -1.210083         3.026199         2.290569
