19
Iteration:  1793charge 0 multiplicity 1
 O         1.606320         2.781755         1.692888
 C         0.595164         1.801160         1.920679
 C         0.562376         0.949088         3.180500
 C        -0.251163         0.046475         2.186132
 C        -1.337196         0.894298         1.296268
 C        -0.495624         0.682800         0.081413
 C         0.630861         0.479994         1.072412
 O         1.868404        -0.275564         0.889893
 C        -0.887079         2.293700         1.643058
 H         2.227591         2.476655         1.000686
 H         1.513037         0.325485         3.342169
 H         0.108940         1.280080         4.146341
 H        -0.478305        -1.050306         2.149443
 H        -2.473551         0.522898         1.327524
 H        -0.868509        -0.246815        -0.578356
 H        -0.399752         1.621344        -0.664400
 H         1.580314        -1.188459         0.652642
 H        -0.752487         2.899206         0.736948
 H        -1.276958         2.890825         2.520445
