19
Iteration:   257
 O         1.667028         2.817339         1.838320
 C         0.698636         1.780370         1.925853
 C         0.501117         0.834707         3.155382
 C        -0.420150        -0.002508         2.212499
 C        -1.377563         0.896487         1.268725
 C        -0.494377         0.622208        -0.019095
 C         0.650073         0.478038         1.026731
 O         1.800129        -0.240249         0.780257
 C        -0.731403         2.276387         1.715796
 H         1.170513         3.302122         1.173713
 H         1.439587         0.216583         3.368666
 H         0.061607         1.310276         4.073727
 H        -0.565375        -1.215185         2.474273
 H        -2.524005         0.812436         1.117694
 H        -0.818128        -0.195918        -0.735749
 H        -0.325108         1.445573        -0.705923
 H         2.622313         0.285404         0.942018
 H        -0.791936         2.882752         0.796220
 H        -1.076204         2.681404         2.687513
