19
Iteration:  1185
 O         1.759811         2.601776         1.572612
 C         0.614538         1.869059         1.869476
 C         0.522328         0.903834         3.160352
 C        -0.360149         0.029439         2.235429
 C        -1.326829         0.844250         1.243399
 C        -0.449216         0.705341         0.074534
 C         0.578283         0.427239         1.102534
 O         1.842059        -0.226134         0.805569
 C        -0.928063         2.333887         1.797831
 H         1.525065         3.521534         1.366302
 H         1.534834         0.425564         3.245615
 H         0.039935         1.379983         4.094716
 H        -0.580227        -0.986008         2.472432
 H        -2.390185         0.561548         1.196316
 H        -0.585387        -0.235882        -0.511234
 H        -0.174755         1.570234        -0.601768
 H         2.501770         0.209233         1.509435
 H        -1.291726         3.137079         1.123202
 H        -1.433832         2.430582         2.757667
