19
Iteration:  3315
 O         1.798671         2.705873         1.830492
 C         0.621710         1.960756         1.871915
 C         0.307164         1.086002         3.144522
 C        -0.232922         0.024857         2.229329
 C        -1.333389         0.935352         1.394386
 C        -0.558298         0.385543         0.152127
 C         0.603387         0.421780         1.033056
 O         1.875692        -0.328752         0.805071
 C        -0.781676         2.339469         1.481933
 H         1.744300         3.173440         0.972093
 H         1.175065         0.790459         3.780534
 H        -0.550489         1.494533         3.789128
 H        -0.410523        -1.005061         2.499150
 H        -2.512552         0.763589         1.354225
 H        -0.803727        -0.748775        -0.007272
 H        -0.842230         0.995018        -0.814489
 H         2.499348         0.124426         0.099303
 H        -0.635892         3.101342         0.694844
 H        -1.371631         2.816313         2.300268
