19
Iteration:  2783
 O         1.699531         2.860492         1.844030
 C         0.610738         1.935028         1.840958
 C         0.347876         1.121105         3.172340
 C        -0.326412         0.028892         2.215472
 C        -1.306368         0.855110         1.366252
 C        -0.518561         0.428459         0.109633
 C         0.644414         0.435611         1.063276
 O         1.894790        -0.322395         0.826596
 C        -0.749282         2.249770         1.491151
 H         2.292059         2.583619         1.144175
 H         1.289313         0.910898         3.663937
 H        -0.354239         1.656947         3.868638
 H        -0.437669        -0.927776         2.623006
 H        -2.431309         0.542164         1.361791
 H        -0.893227        -0.516518        -0.157890
 H        -0.511678         1.134673        -0.666209
 H         1.655221        -0.835247        -0.005806
 H        -0.827863         2.760732         0.518386
 H        -1.129128         2.829594         2.335389
