19
Iteration:  3535
 O         1.759487         2.853971         1.672600
 C         0.673754         1.838824         1.863883
 C         0.456728         0.974574         3.182709
 C        -0.290885         0.103477         2.182647
 C        -1.438614         0.907606         1.265036
 C        -0.602334         0.435471         0.021661
 C         0.622597         0.390225         1.005072
 O         1.838676        -0.305933         1.051013
 C        -0.736858         2.280100         1.650495
 H         1.717179         3.347123         0.836254
 H         1.392742         0.621420         3.456290
 H        -0.000504         1.296303         4.078008
 H        -0.678236        -0.929840         2.296997
 H        -2.460037         0.608995         1.515134
 H        -0.835104        -0.571282        -0.390211
 H        -0.521107         1.279043        -0.721377
 H         2.305440         0.159606         0.428376
 H        -0.875414         3.007626         0.808385
 H        -1.239782         2.636325         2.580083
