19
Iteration:  4370
 O         1.747811         2.801593         1.728421
 C         0.620776         1.950781         1.867353
 C         0.385426         1.170183         3.133663
 C        -0.253629         0.075537         2.281688
 C        -1.288754         0.868788         1.330201
 C        -0.578076         0.252344         0.119723
 C         0.615037         0.353720         1.069721
 O         1.819842        -0.310601         0.883106
 C        -0.774295         2.320472         1.409784
 H         1.755681         3.556972         2.327626
 H         1.272391         0.747264         3.761956
 H        -0.279835         1.687396         3.825679
 H        -0.566457        -1.025085         2.592896
 H        -2.385696         0.728633         1.561804
 H        -0.872014        -0.871094         0.015781
 H        -0.550671         0.667826        -0.971691
 H         2.586767         0.327519         0.621732
 H        -0.852880         2.768069         0.375483
 H        -1.319419         3.039890         2.071712
