19
Iteration:  4739
 O         1.667187         2.713522         1.509018
 C         0.617583         1.783205         1.808752
 C         0.373967         1.125798         3.210391
 C        -0.300608         0.080761         2.358883
 C        -1.285607         0.936394         1.274930
 C        -0.625287         0.301720         0.057130
 C         0.597819         0.278949         1.099233
 O         1.953537        -0.097697         1.089383
 C        -0.790669         2.341744         1.438932
 H         2.403142         2.503974         2.101716
 H         1.287513         0.820673         3.768731
 H        -0.128969         1.688161         3.924331
 H        -0.587765        -0.973916         2.716240
 H        -2.288465         0.636854         1.395839
 H        -0.903480        -0.688242        -0.332193
 H        -0.400466         0.938819        -0.862532
 H         2.496911         0.558870         0.546988
 H        -0.954466         2.939275         0.531481
 H        -1.318768         2.928437         2.170352
