19
Iteration:  3966charge 0 multiplicity 1
 O         1.783636         2.582781         1.569818
 C         0.637956         1.763860         1.780668
 C         0.435054         1.067754         3.206631
 C        -0.474422         0.108937         2.342667
 C        -1.440236         0.864488         1.321796
 C        -0.648615         0.432581         0.047222
 C         0.664039         0.400474         1.043764
 O         2.038374        -0.081671         0.975192
 C        -0.740850         2.245268         1.519307
 H         1.626934         3.371393         2.086498
 H         1.366542         0.567058         3.651959
 H         0.014683         1.731024         3.935381
 H        -0.658448        -0.800786         2.754002
 H        -2.547017         0.877802         1.259894
 H        -1.056746        -0.427287        -0.392510
 H        -0.732980         1.076323        -0.756783
 H         2.435276         0.741262         1.151559
 H        -0.979604         2.777378         0.582391
 H        -1.220217         2.845074         2.371555
