19
Iteration:  4401
 O         1.721896         2.624647         1.548827
 C         0.618263         1.844814         1.858979
 C         0.379752         1.183548         3.191562
 C        -0.407526         0.075832         2.404390
 C        -1.380722         0.890806         1.272236
 C        -0.486117         0.362041         0.144192
 C         0.641037         0.368825         1.144471
 O         1.929735        -0.151774         0.876454
 C        -0.775173         2.246031         1.432836
 H         1.716787         3.417300         2.137289
 H         1.198428         0.574995         3.726829
 H        -0.170309         1.775840         3.972286
 H        -0.698276        -0.981800         2.660024
 H        -2.520632         0.814073         1.399323
 H        -0.696000        -0.672297        -0.047228
 H        -0.301343         1.030658        -0.752030
 H         2.580220         0.409155         0.511454
 H        -0.891889         2.855868         0.439915
 H        -1.129983         2.928680         2.272897
