19
Iteration:  3335charge 0 multiplicity 1
 O         1.762726         2.745038         1.810777
 C         0.678964         1.867210         1.825267
 C         0.401305         1.071966         3.221813
 C        -0.309090         0.094768         2.159327
 C        -1.287951         0.913084         1.318632
 C        -0.599410         0.319606         0.032474
 C         0.636350         0.390786         1.048585
 O         1.838177        -0.316542         0.894086
 C        -0.807022         2.405840         1.590099
 H         1.496766         3.442409         1.164595
 H         1.366079         0.649441         3.536474
 H        -0.105939         1.584793         3.963943
 H        -0.684326        -0.872174         2.449546
 H        -2.398930         0.580753         1.498169
 H        -1.043364        -0.690434        -0.209208
 H        -0.552420         1.013959        -0.865728
 H         2.436770         0.157355         0.330226
 H        -1.021267         2.834238         0.574068
 H        -1.074360         3.067831         2.449220
