19
Iteration:  4799charge 0 multiplicity 1
 O         1.717082         2.668453         1.628160
 C         0.651897         1.861600         1.883615
 C         0.334227         1.221306         3.197474
 C        -0.332275         0.122519         2.343641
 C        -1.341660         0.865404         1.261134
 C        -0.509388         0.227910         0.118463
 C         0.634851         0.411734         1.129921
 O         1.882882        -0.221885         0.815756
 C        -0.785382         2.295990         1.458927
 H         1.636340         3.584037         1.927255
 H         1.275659         0.875584         3.574752
 H        -0.282903         1.886571         3.909874
 H        -0.689949        -0.835891         2.631660
 H        -2.422746         0.778975         1.500606
 H        -0.548470        -0.844759         0.028170
 H        -0.413815         0.739241        -0.810393
 H         2.662026         0.300064         1.105219
 H        -0.759636         2.847498         0.506406
 H        -1.297185         2.826800         2.312632
