19
Iteration:  4391charge 0 multiplicity 1
 O         1.725628         2.696040         1.631414
 C         0.677130         1.757968         1.779111
 C         0.312773         1.178543         3.259210
 C        -0.389115         0.191020         2.340483
 C        -1.400633         0.839777         1.310599
 C        -0.573807         0.309092         0.152610
 C         0.708551         0.446114         1.099078
 O         1.942502        -0.229043         0.862974
 C        -0.736593         2.239766         1.427705
 H         1.595580         3.422139         2.289371
 H         1.368082         0.829447         3.642714
 H        -0.148287         1.864785         3.992574
 H        -0.711658        -0.850988         2.776046
 H        -2.546742         0.718146         1.290085
 H        -0.747427        -0.718984        -0.268550
 H        -0.548282         0.962706        -0.818462
 H         2.483943         0.400978         0.469806
 H        -0.891019         2.900119         0.481632
 H        -1.133831         2.831982         2.320341
