19
Iteration:   448charge 0 multiplicity 1
 O         1.627965         2.820493         1.703730
 C         0.648790         1.803272         1.963439
 C         0.474639         0.940364         3.188572
 C        -0.327267        -0.024581         2.197353
 C        -1.375212         0.893221         1.259312
 C        -0.481565         0.566179         0.028188
 C         0.632511         0.484311         1.051287
 O         1.798693        -0.211682         0.778783
 C        -0.743399         2.273220         1.742615
 H         2.451291         2.728999         2.236686
 H         1.395932         0.436184         3.487489
 H        -0.047584         1.206811         4.095046
 H        -0.425106        -1.026664         2.428645
 H        -2.481181         0.710293         1.246765
 H        -0.626311        -0.398894        -0.465296
 H        -0.457744         1.368019        -0.759426
 H         1.914931        -0.335022        -0.205287
 H        -0.730308         3.023149         0.908753
 H        -1.183588         2.709701         2.652234
