19
Iteration:  1530charge 0 multiplicity 1
 O         1.781030         2.781320         1.843056
 C         0.704118         1.875881         1.904233
 C         0.379836         0.997088         3.196231
 C        -0.294916         0.045819         2.143334
 C        -1.318579         0.857486         1.306395
 C        -0.683967         0.400249         0.023533
 C         0.609382         0.480613         1.026889
 O         1.866039        -0.151027         0.842307
 C        -0.776451         2.266753         1.581074
 H         2.589796         2.270494         2.045832
 H         1.334456         0.782164         3.691931
 H        -0.295081         1.555696         3.871881
 H        -0.666093        -0.946981         2.313472
 H        -2.450622         0.851255         1.450364
 H        -0.821558        -0.679557        -0.150671
 H        -0.746244         1.010029        -0.876376
 H         1.916613        -0.492413        -0.129779
 H        -0.866286         3.034941         0.714601
 H        -1.191974         2.840153         2.442437
