19
Iteration:   250charge 0 multiplicity 1
 O         1.664164         2.791283         1.814583
 C         0.685325         1.747738         2.029177
 C         0.473021         0.869485         3.164250
 C        -0.417313        -0.066764         2.151292
 C        -1.375603         0.880698         1.305542
 C        -0.507377         0.659394         0.025705
 C         0.656639         0.493889         1.044677
 O         1.785651        -0.226282         0.764309
 C        -0.680909         2.254524         1.636875
 H         1.279325         3.495710         1.267565
 H         1.410655         0.372707         3.357478
 H         0.008571         1.284609         4.086265
 H        -0.574020        -1.028170         2.395968
 H        -2.446648         0.748810         1.235545
 H        -0.539244        -0.328535        -0.500164
 H        -0.385523         1.522746        -0.684294
 H         2.443470         0.416057         0.610553
 H        -0.711607         2.861558         0.727266
 H        -1.105201         2.928648         2.472380
