19
Iteration:  2491
 O         1.605987         2.873263         1.849316
 C         0.703147         1.836648         1.838690
 C         0.403709         1.074635         3.217036
 C        -0.296437         0.138085         2.211056
 C        -1.290259         0.910756         1.336083
 C        -0.593987         0.376257         0.085312
 C         0.710672         0.425022         1.051856
 O         1.801033        -0.382949         0.795500
 C        -0.703248         2.233553         1.510615
 H         1.581671         3.378692         1.022555
 H         1.307028         0.670365         3.657335
 H        -0.376295         1.406830         3.979755
 H        -0.476662        -0.946767         2.473704
 H        -2.331597         0.858735         1.594666
 H        -0.711519        -0.730958        -0.010335
 H        -0.842260         0.943154        -0.903242
 H         2.433286         0.213252         0.425565
 H        -0.662445         2.886645         0.587269
 H        -1.051520         2.920892         2.368331
