19
Iteration:   594
 O         1.632167         2.729343         1.751662
 C         0.687713         1.840736         1.913373
 C         0.549705         0.795380         3.107700
 C        -0.374970         0.015027         2.161907
 C        -1.338928         0.973614         1.282020
 C        -0.536535         0.526394         0.000423
 C         0.596660         0.440993         1.031473
 O         1.843474        -0.201132         0.895313
 C        -0.772253         2.355092         1.740643
 H         1.678561         3.202265         0.920855
 H         1.491435         0.209793         3.224517
 H         0.231754         1.082634         4.157283
 H        -0.699885        -1.059925         2.403405
 H        -2.518610         0.924103         1.498286
 H        -0.977517        -0.520758        -0.197354
 H        -0.392811         1.268022        -0.845184
 H         2.384384         0.552798         0.415485
 H        -0.785270         3.193461         0.999072
 H        -1.175427         2.715541         2.741159
