19
Iteration:  1636
 O         1.710666         2.729444         1.736244
 C         0.643986         1.753677         1.889896
 C         0.570503         0.877394         3.144135
 C        -0.352157        -0.002001         2.113846
 C        -1.421488         0.908563         1.339094
 C        -0.558832         0.642074        -0.030960
 C         0.593789         0.443861         1.016623
 O         1.893975        -0.142241         1.032577
 C        -0.789056         2.296740         1.650207
 H         1.494889         3.242629         0.942603
 H         1.557133         0.502092         3.248363
 H         0.292801         1.412399         4.069094
 H        -0.615156        -1.064188         2.290430
 H        -2.368451         0.867553         1.612447
 H        -0.974472        -0.155023        -0.646126
 H        -0.630207         1.550091        -0.717800
 H         1.856980        -1.094270         0.605127
 H        -0.775812         2.926178         0.811905
 H        -1.163422         2.764952         2.534132
