19
Iteration:  1012charge 0 multiplicity 1
 O         1.817431         2.597104         1.731938
 C         0.646883         1.790749         1.835157
 C         0.440443         0.863493         3.189403
 C        -0.260573         0.011386         2.108728
 C        -1.384861         0.920546         1.330586
 C        -0.649769         0.556699         0.022041
 C         0.608194         0.486986         0.966086
 O         1.868921        -0.083776         0.897330
 C        -0.846706         2.357985         1.778725
 H         1.941993         2.854114         0.797648
 H         1.329509         0.401924         3.644647
 H        -0.134475         1.228456         3.971693
 H        -0.570800        -1.053394         2.201032
 H        -2.377615         0.664976         1.331582
 H        -0.942510        -0.391978        -0.409480
 H        -0.552758         1.268722        -0.762897
 H         2.572827         0.510315         1.219116
 H        -1.108884         3.004523         0.962598
 H        -1.193606         2.832632         2.723847
