19
Iteration:  2817charge 0 multiplicity 1
 O         1.620780         2.843146         1.672115
 C         0.628294         1.870441         1.875019
 C         0.426157         1.049391         3.222659
 C        -0.328254         0.077077         2.287070
 C        -1.288306         0.925273         1.231229
 C        -0.430928         0.368065         0.071941
 C         0.577794         0.449874         1.102715
 O         1.832476        -0.277899         0.879481
 C        -0.757595         2.303293         1.580351
 H         2.407671         2.271726         1.660983
 H         1.338080         0.565072         3.598797
 H         0.043168         1.528362         4.156031
 H        -0.790796        -0.915565         2.432917
 H        -2.451857         0.695789         1.264976
 H        -0.817505        -0.590040        -0.118668
 H        -0.280148         0.839079        -0.864116
 H         2.130883        -0.246786        -0.115744
 H        -0.854354         3.023908         0.770146
 H        -1.321099         2.662435         2.456052
