19
Iteration:  3566
 O         1.726210         2.657181         1.740264
 C         0.616713         1.802408         1.886964
 C         0.479892         1.002887         3.179908
 C        -0.305327         0.129178         2.263577
 C        -1.380059         0.953306         1.339162
 C        -0.527968         0.360225         0.063585
 C         0.611202         0.386669         0.996370
 O         1.839163        -0.221357         0.870199
 C        -0.783990         2.387339         1.539134
 H         1.419747         3.566128         1.553461
 H         1.508241         0.598757         3.385882
 H         0.019320         1.547361         3.996626
 H        -0.735486        -0.849824         2.396294
 H        -2.449510         0.581737         1.497186
 H        -0.784506        -0.680007        -0.192720
 H        -0.479175         0.949063        -0.823432
 H         2.543402         0.546558         0.880350
 H        -0.718998         2.859820         0.531198
 H        -1.308084         3.023801         2.300914
