19
Iteration:  3552
 O         1.733680         2.754337         1.715386
 C         0.684886         1.815447         1.806486
 C         0.460133         0.987888         3.092045
 C        -0.377730         0.021686         2.160713
 C        -1.288793         0.946241         1.327683
 C        -0.590886         0.393862         0.066810
 C         0.633061         0.477237         1.049709
 O         1.844646        -0.261441         0.995888
 C        -0.780376         2.342321         1.612869
 H         1.312733         3.466078         1.226672
 H         1.326798         0.347829         3.569647
 H        -0.058760         1.525576         3.943254
 H        -0.448157        -0.996463         2.505975
 H        -2.430341         0.967951         1.401229
 H        -0.921447        -0.655022         0.007654
 H        -0.757432         0.830601        -0.926729
 H         2.538492         0.257702         0.660301
 H        -0.931480         3.103468         0.837501
 H        -1.176528         2.834553         2.515905
