19
Iteration:   953
 O         1.758927         2.743107         1.988549
 C         0.691756         1.860794         1.924000
 C         0.383342         0.970494         3.178156
 C        -0.368292         0.020540         2.213087
 C        -1.278012         0.948002         1.295881
 C        -0.626092         0.339936         0.131473
 C         0.644712         0.422122         0.981923
 O         1.772902        -0.166725         0.487850
 C        -0.694043         2.317684         1.608202
 H         1.539351         3.484385         2.585320
 H         1.355784         0.479439         3.282426
 H        -0.123667         1.441345         4.100707
 H        -0.774693        -0.923183         2.594555
 H        -2.439452         0.885700         1.428354
 H        -0.843908        -0.747732        -0.052407
 H        -0.437375         0.779158        -0.920420
 H         2.615153         0.262832         0.838372
 H        -0.711920         2.949455         0.646356
 H        -1.143163         2.998198         2.387694
