19
Iteration:  4573charge 0 multiplicity 1
 O         1.756698         2.644051         1.468652
 C         0.695491         1.828862         1.855151
 C         0.331500         1.108767         3.217048
 C        -0.341829         0.113517         2.295902
 C        -1.347307         0.858240         1.295620
 C        -0.505244         0.245243         0.140051
 C         0.506612         0.413960         1.164195
 O         1.867128        -0.047891         1.009259
 C        -0.790171         2.298922         1.426995
 H         2.393636         2.600234         2.204519
 H         1.283456         0.597577         3.582061
 H        -0.109264         1.679969         4.059824
 H        -0.488493        -0.922034         2.583489
 H        -2.509240         0.809787         1.336663
 H        -0.662909        -0.742482        -0.413442
 H        -0.332320         0.904477        -0.737554
 H         2.357445         0.672984         0.657725
 H        -0.773238         3.017173         0.529635
 H        -1.148556         2.821671         2.322352
