19
Iteration:  4510
 O         1.742667         2.890559         1.679670
 C         0.665963         1.827019         1.821178
 C         0.339863         1.197144         3.190231
 C        -0.318156         0.105097         2.345894
 C        -1.299434         0.856020         1.326711
 C        -0.532519         0.242425         0.116302
 C         0.659494         0.440610         1.055471
 O         1.784650        -0.379278         0.861253
 C        -0.749712         2.259248         1.407903
 H         1.886222         3.555125         2.357936
 H         1.245578         0.825723         3.778575
 H        -0.247845         1.675860         4.011930
 H        -0.576006        -0.906809         2.747683
 H        -2.379166         0.758870         1.513594
 H        -0.561123        -0.783499        -0.125000
 H        -0.468004         0.875362        -0.828993
 H         2.359468         0.358494         0.701462
 H        -0.991839         2.799284         0.430661
 H        -1.304040         2.912691         2.101495
