19
Iteration:  3786charge 0 multiplicity 1
 O         1.758548         2.730814         1.693233
 C         0.635352         1.888245         1.896612
 C         0.350154         1.090964         3.190478
 C        -0.338882         0.053446         2.287079
 C        -1.298315         0.885744         1.292715
 C        -0.550542         0.267127         0.064420
 C         0.618556         0.386036         1.122879
 O         1.790704        -0.093260         0.850601
 C        -0.736057         2.334218         1.478474
 H         2.563303         2.211087         1.931603
 H         1.129255         0.559451         3.695985
 H        -0.218089         1.680358         4.007732
 H        -0.486440        -1.069221         2.624312
 H        -2.334874         0.796569         1.571035
 H        -0.741803        -0.783607         0.064645
 H        -0.477705         0.784279        -0.856331
 H         2.180301         0.254933         0.087540
 H        -0.614370         2.995122         0.609872
 H        -1.368895         2.897303         2.084905
