19
Iteration:  2354
 O         1.842274         2.622690         1.730107
 C         0.593063         1.895707         1.840819
 C         0.349169         1.034490         3.193567
 C        -0.366987         0.054788         2.203495
 C        -1.380210         0.880995         1.298594
 C        -0.589322         0.272870         0.070801
 C         0.592608         0.442180         1.012988
 O         1.932405        -0.086462         0.873606
 C        -0.789370         2.370794         1.599444
 H         1.877788         3.323050         1.046923
 H         1.304995         0.487260         3.478362
 H        -0.122801         1.471415         4.086112
 H        -0.663301        -0.956250         2.651312
 H        -2.445039         0.833887         1.407470
 H        -0.793857        -0.846357         0.089633
 H        -0.404515         0.670769        -1.065360
 H         2.570499         0.497239         1.193206
 H        -0.979373         3.088693         0.792093
 H        -1.058971         2.816294         2.536985
