19
Iteration:  2330
 O         1.678829         2.755489         1.884340
 C         0.679474         1.829839         1.882355
 C         0.445098         1.052114         3.215646
 C        -0.290241         0.079069         2.228029
 C        -1.288594         0.867254         1.352928
 C        -0.586121         0.418541         0.125182
 C         0.612227         0.422252         1.070773
 O         1.795244        -0.232763         0.800703
 C        -0.762463         2.270457         1.383807
 H         1.744475         3.316635         1.084217
 H         1.257389         0.507037         3.717618
 H        -0.120200         1.740768         3.873097
 H        -0.556819        -1.054276         2.505932
 H        -2.337540         0.799220         1.522683
 H        -0.679286        -0.655923        -0.093132
 H        -0.694761         1.101527        -0.861659
 H         2.512014         0.334576         0.399781
 H        -0.568923         2.594346         0.390669
 H        -1.270839         3.062971         1.921675
