19
Iteration:  1752
 O         1.683384         2.712930         1.650585
 C         0.674758         1.800385         1.852708
 C         0.455747         0.853956         3.177915
 C        -0.454825         0.040947         2.147865
 C        -1.373180         0.979450         1.327115
 C        -0.558909         0.445239         0.122848
 C         0.662967         0.411183         1.092083
 O         1.929252         0.012258         0.773982
 C        -0.762959         2.349632         1.709115
 H         2.345259         2.433173         2.304962
 H         1.373811         0.426222         3.535412
 H         0.009829         1.507421         3.974936
 H        -0.620159        -1.000650         2.269650
 H        -2.467567         0.806244         1.269777
 H        -0.894520        -0.576257        -0.134899
 H        -0.617932         0.938815        -0.820019
 H         1.971573        -0.991864         0.587056
 H        -0.877678         3.079522         0.897284
 H        -1.161123         2.610368         2.674535
