19
Iteration:  3153
 O         1.765445         2.729700         1.847549
 C         0.681277         1.867833         1.878588
 C         0.440198         1.081771         3.184611
 C        -0.328307         0.058075         2.208822
 C        -1.358097         0.790153         1.379515
 C        -0.655814         0.361760         0.064260
 C         0.675347         0.492307         0.918232
 O         1.832850        -0.253252         0.901634
 C        -0.771645         2.322688         1.453754
 H         1.526404         3.346287         1.141893
 H         1.476009         0.826921         3.464384
 H        -0.157368         1.602954         3.997944
 H        -0.542800        -0.969618         2.498743
 H        -2.482104         0.930702         1.612048
 H        -0.930978        -0.681191        -0.227249
 H        -0.868690         0.955351        -0.807152
 H         2.775228         0.137486         0.999114
 H        -0.893551         2.929832         0.491480
 H        -1.082014         2.984920         2.308483
