19
Iteration:   190
 O         1.810361         2.602909         1.937195
 C         0.692393         1.787372         1.886682
 C         0.423601         0.970450         3.168572
 C        -0.368200         0.078229         2.191199
 C        -1.362684         0.869084         1.313830
 C        -0.563987         0.416386         0.063391
 C         0.578241         0.522492         0.999802
 O         1.862666        -0.006150         0.710445
 C        -0.844837         2.291011         1.529394
 H         2.157245         2.459842         2.852408
 H         1.356472         0.452616         3.518316
 H        -0.033191         1.467310         4.048961
 H        -0.562229        -1.037030         2.570965
 H        -2.433038         0.746457         1.353239
 H        -0.767354        -0.607514        -0.264706
 H        -0.594236         1.077020        -0.802450
 H         2.229209         0.425775        -0.070593
 H        -1.050721         2.919528         0.638344
 H        -1.137881         2.721365         2.471439
