19
Iteration:  1622
 O         1.712978         2.648883         1.711983
 C         0.645151         1.848237         1.867703
 C         0.476719         0.861265         3.154676
 C        -0.212984        -0.006237         2.177863
 C        -1.318863         0.970407         1.341123
 C        -0.720663         0.630195        -0.050042
 C         0.616485         0.440527         0.989824
 O         1.943187        -0.160354         1.011414
 C        -0.788486         2.342303         1.673290
 H         1.430602         3.477844         1.269311
 H         1.363888         0.375134         3.554266
 H        -0.269928         1.060253         3.952472
 H        -0.533283        -1.043217         2.394296
 H        -2.450743         0.684550         1.280261
 H        -0.945251        -0.339670        -0.520635
 H        -0.577398         1.394879        -0.816544
 H         1.880512        -0.989581         0.629364
 H        -0.951241         3.060183         0.745367
 H        -1.217217         2.855624         2.606564
