19
Iteration:  4728charge 0 multiplicity 1
 O         1.654793         2.749604         1.526414
 C         0.597719         1.879787         1.816437
 C         0.388617         1.126275         3.204150
 C        -0.303087         0.040471         2.297499
 C        -1.377004         0.900237         1.300767
 C        -0.491957         0.273585         0.070391
 C         0.661107         0.403365         1.171939
 O         1.920013        -0.210606         1.034011
 C        -0.810859         2.345610         1.438787
 H         2.473282         2.416597         1.931552
 H         1.346225         0.744664         3.608019
 H        -0.281096         1.593251         3.822856
 H        -0.798701        -0.863028         2.780016
 H        -2.422358         0.885658         1.463203
 H        -0.852958        -0.771927        -0.044388
 H        -0.522167         0.898909        -0.884270
 H         2.461027         0.471618         0.482331
 H        -0.782951         2.909716         0.493149
 H        -1.207806         2.847979         2.294988
