19
Iteration:  1137charge 0 multiplicity 1
 O         1.729955         2.700362         1.861295
 C         0.652459         1.788199         1.913081
 C         0.457669         0.848903         3.196508
 C        -0.337160        -0.013825         2.198180
 C        -1.345424         0.969391         1.386091
 C        -0.606453         0.431386         0.070441
 C         0.620072         0.434583         1.056265
 O         1.865884        -0.103647         0.757898
 C        -0.740256         2.350171         1.522590
 H         1.606375         3.317778         1.115108
 H         1.434421         0.371617         3.236128
 H        -0.066886         1.239358         4.053757
 H        -0.797177        -1.005485         2.523775
 H        -2.460019         0.995160         1.356101
 H        -1.022685        -0.512345        -0.290595
 H        -0.669640         1.177439        -0.743899
 H         2.389197         0.602121         0.363306
 H        -0.627168         2.923158         0.582776
 H        -1.141172         3.021260         2.303537
