19
Iteration:  2821charge 0 multiplicity 1
 O         1.611306         2.828463         1.658288
 C         0.612254         1.853651         1.880128
 C         0.418288         1.064135         3.192001
 C        -0.320544         0.047777         2.301060
 C        -1.315002         0.919073         1.234907
 C        -0.464528         0.395047         0.084028
 C         0.592479         0.410386         1.112286
 O         1.845087        -0.254911         0.895152
 C        -0.733348         2.318001         1.574431
 H         2.429475         2.292651         1.774590
 H         1.390556         0.510589         3.357614
 H         0.078703         1.580572         4.090438
 H        -0.803658        -0.978252         2.355810
 H        -2.343379         0.774211         1.328079
 H        -0.762106        -0.677117        -0.145864
 H        -0.217431         0.979521        -0.876703
 H         2.133609        -0.163464         0.031558
 H        -0.773684         3.084244         0.794472
 H        -1.330232         2.720370         2.408510
