19
Iteration:  1533
 O         1.783263         2.770938         1.851946
 C         0.719902         1.876000         1.868820
 C         0.358692         1.018929         3.185692
 C        -0.295473         0.025171         2.127215
 C        -1.291251         0.842980         1.321507
 C        -0.697191         0.387586         0.038025
 C         0.604630         0.500193         1.039746
 O         1.859205        -0.137934         0.819075
 C        -0.757632         2.270232         1.582575
 H         2.548956         2.289199         2.235671
 H         1.298178         0.742760         3.774425
 H        -0.320218         1.540940         3.867880
 H        -0.717637        -0.965307         2.267706
 H        -2.498669         0.808403         1.397536
 H        -0.792304        -0.718719        -0.015448
 H        -0.814234         1.040904        -0.790983
 H         1.933281        -0.481010        -0.033468
 H        -0.846852         3.036390         0.704604
 H        -1.179620         2.922513         2.409242
