19
Iteration:  1311
 O         1.581878         2.817223         1.591753
 C         0.674953         1.792177         1.941007
 C         0.439162         0.857361         3.174243
 C        -0.372588         0.010354         2.142695
 C        -1.326889         1.020958         1.318879
 C        -0.588361         0.521450         0.015184
 C         0.642055         0.434339         1.063021
 O         1.953289        -0.163510         0.929304
 C        -0.704426         2.299033         1.743033
 H         2.500714         2.510898         1.793465
 H         1.220225         0.342144         3.652962
 H        -0.224280         1.133827         3.979706
 H        -0.640962        -1.064359         2.219619
 H        -2.344106         1.029643         1.227671
 H        -0.882104        -0.497442        -0.245656
 H        -0.678837         1.186523        -0.901921
 H         1.934612        -0.663172         0.089599
 H        -0.821322         3.068719         0.947182
 H        -1.206329         2.666797         2.640871
