19
Iteration:  2502
 O         1.716985         2.832712         1.781019
 C         0.716564         1.806958         1.889820
 C         0.330623         1.084920         3.151534
 C        -0.283710         0.070388         2.256570
 C        -1.304152         0.873242         1.306851
 C        -0.585848         0.350766         0.086353
 C         0.639843         0.423436         1.065206
 O         1.830058        -0.290947         0.816720
 C        -0.714801         2.311478         1.583850
 H         1.495160         3.180651         0.902430
 H         1.150007         0.703546         3.751105
 H        -0.291012         1.768816         3.813807
 H        -0.445325        -1.025962         2.487048
 H        -2.377869         0.788735         1.334718
 H        -0.964943        -0.669488        -0.139376
 H        -0.514684         0.929775        -0.920892
 H         2.452418         0.333355         0.302085
 H        -0.998287         3.040405         0.794150
 H        -1.248839         2.613347         2.550888
