19
Iteration:   744
 O         1.776652         2.724033         1.799008
 C         0.683525         1.856770         1.810359
 C         0.497588         0.949177         3.135989
 C        -0.329043         0.050308         2.175184
 C        -1.398085         0.872500         1.344532
 C        -0.539290         0.565872         0.023434
 C         0.578915         0.479113         1.028873
 O         1.882942        -0.209427         0.897374
 C        -0.875710         2.283910         1.726562
 H         2.009147         3.134979         0.956726
 H         1.451140         0.350298         3.169625
 H         0.168050         1.514326         4.001945
 H        -0.568713        -0.988159         2.262885
 H        -2.571575         0.514335         1.419072
 H        -0.795092        -0.355947        -0.537750
 H        -0.367254         1.405787        -0.738238
 H         1.763904        -0.743259         0.085538
 H        -1.257646         3.150879         1.047721
 H        -1.209601         2.484946         2.777670
