19
Iteration:  2864charge 0 multiplicity 1
 O         1.811471         2.623603         1.572229
 C         0.637548         1.828896         1.870530
 C         0.388809         1.033369         3.153129
 C        -0.333893         0.038417         2.165951
 C        -1.352833         0.865665         1.342201
 C        -0.649445         0.397355         0.056568
 C         0.612304         0.459424         1.092194
 O         1.880877        -0.103225         0.966617
 C        -0.785965         2.322765         1.534400
 H         2.206812         2.995038         2.377536
 H         1.359017         0.632441         3.550194
 H        -0.073860         1.457959         4.054180
 H        -0.427498        -1.039865         2.540365
 H        -2.394028         0.806219         1.521882
 H        -0.785775        -0.642552        -0.292441
 H        -0.911390         1.069487        -0.796981
 H         2.472657         0.651346         1.309171
 H        -0.879791         2.955428         0.643537
 H        -1.255733         2.822778         2.395370
