19
Iteration:  3108
 O         1.724475         2.723696         1.620773
 C         0.662702         1.812625         1.855137
 C         0.360892         1.017038         3.275529
 C        -0.468013         0.087600         2.380305
 C        -1.299287         0.930547         1.292251
 C        -0.501150         0.422840         0.056774
 C         0.622877         0.429750         1.142389
 O         1.924199        -0.228743         0.745565
 C        -0.777690         2.255789         1.600789
 H         1.688334         3.171214         0.752951
 H         1.254248         0.470423         3.663157
 H        -0.108555         1.702612         4.049325
 H        -0.886425        -0.852474         2.652752
 H        -2.431167         0.822205         1.196865
 H        -0.521054        -0.651723        -0.267658
 H        -0.553076         1.103254        -0.802617
 H         2.645985         0.480204         0.969368
 H        -0.786711         2.999464         0.740256
 H        -1.296528         2.744004         2.460862
