19
Iteration:  4911charge 0 multiplicity 1
 O         1.690842         2.563727         1.531181
 C         0.626263         1.829604         1.886472
 C         0.348840         1.105448         3.216583
 C        -0.396776         0.080563         2.325046
 C        -1.367446         0.885344         1.360557
 C        -0.438544         0.350615         0.149493
 C         0.666907         0.458264         1.130343
 O         1.903816        -0.148974         0.911810
 C        -0.742838         2.339983         1.408613
 H         1.219978         3.396699         1.351200
 H         1.403939         0.738721         3.579972
 H        -0.300911         1.650532         4.031722
 H        -0.522876        -0.991330         2.542283
 H        -2.430245         0.800262         1.201767
 H        -0.740641        -0.700118        -0.070460
 H        -0.321893         0.993659        -0.656340
 H         2.407090         0.629981         1.179602
 H        -0.799478         2.683888         0.331490
 H        -1.197341         2.944168         2.209480
