19
Iteration:  2623charge 0 multiplicity 1
 O         1.636584         2.940333         1.889988
 C         0.665937         1.953465         1.835285
 C         0.479849         1.080463         3.097751
 C        -0.319602         0.035958         2.292535
 C        -1.350262         0.855608         1.355290
 C        -0.611666         0.394445         0.094352
 C         0.652547         0.388167         1.037652
 O         1.858680        -0.357356         0.884917
 C        -0.760283         2.266205         1.413262
 H         2.526283         2.625102         1.697234
 H         1.445432         0.808809         3.523312
 H        -0.168319         1.526122         3.904956
 H        -0.654221        -1.043619         2.588272
 H        -2.295780         0.414961         1.356864
 H        -0.852787        -0.628641        -0.273994
 H        -0.526985         1.210210        -0.716789
 H         1.998667        -0.219475        -0.093403
 H        -0.688552         2.736703         0.435166
 H        -1.204726         2.945804         2.192841
