19
Iteration:  1605charge 0 multiplicity 1
 O         1.786551         2.651409         1.720591
 C         0.652480         1.786484         1.895265
 C         0.352877         0.937856         3.167174
 C        -0.353709         0.017151         2.118722
 C        -1.353344         0.925407         1.348446
 C        -0.531362         0.494582         0.065646
 C         0.644404         0.444475         1.010336
 O         1.919132        -0.083706         0.828790
 C        -0.766276         2.340858         1.679251
 H         1.424971         3.561797         1.748653
 H         1.265604         0.494408         3.567052
 H        -0.180456         1.489850         3.955543
 H        -0.636170        -1.041800         2.199832
 H        -2.381470         0.822526         1.544835
 H        -0.915287        -0.511901        -0.107237
 H        -0.657708         1.239037        -0.759369
 H         1.743609        -0.983085         0.680639
 H        -0.904294         3.060900         0.931607
 H        -1.191817         2.814350         2.541476
