19
Iteration:  3984charge 0 multiplicity 1
 O         1.739895         2.598301         1.481446
 C         0.636975         1.813630         1.869484
 C         0.396163         1.036632         3.182815
 C        -0.351006         0.061855         2.264038
 C        -1.364311         0.915039         1.335588
 C        -0.533007         0.448073         0.069116
 C         0.600265         0.387000         1.129508
 O         1.961316        -0.149332         1.006399
 C        -0.863415         2.342006         1.547707
 H         1.665533         3.509199         1.785984
 H         1.324942         0.517231         3.450852
 H        -0.115960         1.483743         4.064704
 H        -0.738337        -0.965530         2.525177
 H        -2.418724         0.678975         1.521471
 H        -0.714538        -0.600000        -0.338411
 H        -0.364831         1.213731        -0.828058
 H         2.523603         0.534566         0.687231
 H        -0.794448         2.969072         0.653762
 H        -1.258742         2.805580         2.405652
