19
Iteration:   759charge 0 multiplicity 1
 O         1.697146         2.771157         1.845967
 C         0.638288         1.801920         1.925295
 C         0.559208         0.961916         3.120842
 C        -0.322634         0.019825         2.220669
 C        -1.314263         0.881576         1.309217
 C        -0.532862         0.604657         0.009801
 C         0.632684         0.432138         1.041939
 O         1.793921        -0.198568         0.781723
 C        -0.791211         2.284354         1.651899
 H         1.656850         3.085477         0.916223
 H         1.486439         0.573313         3.449798
 H         0.067778         1.300112         4.067807
 H        -0.536269        -1.047870         2.598411
 H        -2.493736         0.752462         1.318431
 H        -0.833522        -0.362834        -0.419876
 H        -0.610952         1.403184        -0.678212
 H         1.660431        -1.095274         0.555898
 H        -0.831608         2.962236         0.793357
 H        -1.262620         2.826169         2.519867
