19
Iteration:   769charge 0 multiplicity 1
 O         1.609963         2.769479         1.859389
 C         0.691189         1.807246         1.948350
 C         0.504001         0.910123         3.220217
 C        -0.260062         0.016498         2.217862
 C        -1.304755         0.961147         1.361562
 C        -0.522832         0.536666         0.032492
 C         0.607628         0.446392         1.023197
 O         1.808540        -0.202287         0.674586
 C        -0.732941         2.304657         1.604328
 H         1.633000         3.230453         1.008037
 H         1.396829         0.376363         3.395023
 H         0.030723         1.515394         4.028529
 H        -0.591568        -1.051976         2.531266
 H        -2.558374         0.849088         1.387179
 H        -0.909022        -0.381803        -0.429555
 H        -0.535908         1.294766        -0.717097
 H         1.655113        -1.068723         0.959993
 H        -0.639358         2.835315         0.610868
 H        -1.373534         2.927370         2.305662
