19
Iteration:  4516charge 0 multiplicity 1
 O         1.733657         2.882178         1.686888
 C         0.682072         1.867345         1.780949
 C         0.348805         1.215566         3.158592
 C        -0.282218         0.022230         2.330377
 C        -1.286707         0.867208         1.344841
 C        -0.545058         0.257464         0.077630
 C         0.613519         0.351576         1.067186
 O         1.797764        -0.336473         0.881298
 C        -0.764743         2.282690         1.438654
 H         1.722778         3.429922         2.504306
 H         1.287599         0.981668         3.648244
 H        -0.341564         1.824429         3.766761
 H        -0.702028        -0.867378         2.785807
 H        -2.428417         0.720429         1.404848
 H        -0.852604        -0.893332         0.154782
 H        -0.406969         1.000776        -0.697450
 H         2.535243         0.303134         0.807773
 H        -0.738969         2.798038         0.469347
 H        -1.179016         2.983470         2.192194
