19
Iteration:  1281charge 0 multiplicity 1
 O         1.787430         2.640454         1.768046
 C         0.639542         1.833608         1.942565
 C         0.452873         1.050386         3.208752
 C        -0.333260         0.004806         2.281286
 C        -1.362044         0.851221         1.373570
 C        -0.499178         0.513662         0.005527
 C         0.613242         0.424409         1.113936
 O         1.841188        -0.111331         0.677682
 C        -0.848271         2.307176         1.550872
 H         2.048434         2.842786         2.689021
 H         1.309593         0.637512         3.680744
 H        -0.255805         1.451265         3.955737
 H        -0.551761        -0.961512         2.515754
 H        -2.404360         0.676939         1.253639
 H        -0.599377        -0.491705        -0.389484
 H        -0.401578         1.453260        -0.600791
 H         1.756678        -0.239089        -0.318138
 H        -0.971986         2.842078         0.575002
 H        -1.352070         2.888716         2.302930
