19
Iteration:  1008charge 0 multiplicity 1
 O         1.817466         2.591264         1.756969
 C         0.658235         1.796780         1.862921
 C         0.436630         0.869031         3.159281
 C        -0.286348        -0.000331         2.092007
 C        -1.352793         0.928314         1.357108
 C        -0.654133         0.545317         0.032732
 C         0.601045         0.485083         0.975597
 O         1.871812        -0.087837         0.873457
 C        -0.863647         2.340082         1.747844
 H         1.936127         2.812292         0.815144
 H         1.236615         0.495643         3.768634
 H        -0.192864         1.335017         3.998020
 H        -0.476015        -1.023616         2.210462
 H        -2.453207         0.680202         1.449010
 H        -0.809368        -0.478167        -0.377114
 H        -0.587012         1.385429        -0.730053
 H         2.456292         0.698566         1.026016
 H        -1.006239         2.995388         0.841153
 H        -1.012861         2.857539         2.698701
