19
Iteration:  3596charge 0 multiplicity 1
 O         1.886951         2.588642         1.730449
 C         0.681199         1.776874         1.884006
 C         0.280438         1.074041         3.219451
 C        -0.400819         0.070090         2.395097
 C        -1.376237         0.861716         1.365413
 C        -0.512202         0.388128         0.159787
 C         0.637458         0.428406         1.057285
 O         1.829884        -0.057387         0.658560
 C        -0.780295         2.286621         1.462739
 H         1.525490         3.479922         1.744107
 H         1.309006         0.711318         3.686168
 H        -0.228062         1.826436         3.858250
 H        -0.743386        -0.917547         2.630409
 H        -2.485095         0.598842         1.314927
 H        -0.616799        -0.654661        -0.208784
 H        -0.565340         0.949612        -0.788803
 H         2.592636         0.432744         0.989623
 H        -0.716079         2.767908         0.498649
 H        -1.305766         3.056180         2.038598
