19
Iteration:   613charge 0 multiplicity 1
 O         1.676742         2.798670         1.935795
 C         0.644997         1.714245         1.900412
 C         0.547537         0.953175         3.160372
 C        -0.323940         0.020776         2.217210
 C        -1.359512         0.952012         1.332162
 C        -0.597695         0.559695         0.039534
 C         0.617018         0.364277         0.969752
 O         1.807548        -0.221225         0.740113
 C        -0.745545         2.285418         1.593737
 H         1.605266         3.330387         1.126907
 H         1.413618         0.303269         3.451715
 H         0.104209         1.467981         3.982920
 H        -0.660576        -0.934694         2.375739
 H        -2.545191         0.739524         1.511099
 H        -0.874429        -0.390871        -0.323283
 H        -0.538305         1.321164        -0.680892
 H         2.635662         0.354100         0.628535
 H        -0.692152         2.866684         0.612124
 H        -1.008769         2.892348         2.463690
