19
Iteration:    27
 O         1.840108         2.603840         1.824814
 C         0.655785         1.776179         1.862010
 C         0.449454         0.993177         3.210538
 C        -0.394863        -0.006562         2.309080
 C        -1.358184         0.813474         1.359513
 C        -0.550530         0.510746         0.062568
 C         0.586337         0.400911         1.020173
 O         1.830785         0.080099         0.640021
 C        -0.848211         2.299472         1.502194
 H         2.265935         2.449355         2.670889
 H         1.344498         0.403660         3.568157
 H        -0.056752         1.622865         4.019786
 H        -0.663776        -0.990777         2.732808
 H        -2.407985         0.737010         1.360141
 H        -0.848416        -0.414521        -0.468660
 H        -0.564722         1.316833        -0.740735
 H         2.534651         0.311304         1.196133
 H        -0.927154         2.756251         0.455121
 H        -1.302500         2.808681         2.360075
