19
Iteration:  2210
 O         1.878622         2.521618         1.709424
 C         0.631425         1.787391         1.864493
 C         0.289481         1.048550         3.247546
 C        -0.359724         0.063018         2.239931
 C        -1.346180         0.949428         1.288124
 C        -0.487285         0.331523         0.101933
 C         0.618891         0.463976         1.071846
 O         1.877393         0.046409         0.752436
 C        -0.829135         2.303380         1.609859
 H         1.704389         3.019742         0.893166
 H         1.130408         0.514471         3.567260
 H        -0.300057         1.559038         3.983636
 H        -0.659124        -1.011677         2.579666
 H        -2.432203         0.990497         1.308824
 H        -0.538918        -0.735478         0.075015
 H        -0.542538         0.648868        -0.966624
 H         2.384022         0.402884         1.441816
 H        -1.014983         2.897015         0.710724
 H        -1.442488         2.650175         2.443752
