19
Iteration:  4651charge 0 multiplicity 1
 O         1.573890         2.949966         1.686782
 C         0.645968         1.890792         1.814397
 C         0.464992         1.155745         3.178453
 C        -0.330131         0.156709         2.260160
 C        -1.366628         0.872680         1.261512
 C        -0.521696         0.258644         0.132261
 C         0.678374         0.400450         1.090942
 O         1.847701        -0.420987         0.986912
 C        -0.744345         2.296930         1.411030
 H         2.259216         2.768634         2.340554
 H         1.422236         0.768652         3.584867
 H         0.023201         1.593041         4.043863
 H        -0.485312        -0.898376         2.566713
 H        -2.393472         0.816375         1.441338
 H        -0.660967        -0.794274         0.089429
 H        -0.522335         0.824200        -0.799017
 H         2.213912        -0.370734         0.077429
 H        -0.757533         2.871978         0.443020
 H        -1.184808         2.966777         2.163191
