19
Iteration:   779charge 0 multiplicity 1
 O         1.631974         2.811689         1.903548
 C         0.655113         1.798435         1.925984
 C         0.454478         0.886796         3.256278
 C        -0.290656         0.058553         2.221447
 C        -1.312002         0.955004         1.368981
 C        -0.596511         0.489206         0.088068
 C         0.608195         0.430549         1.006834
 O         1.848586        -0.218030         0.578233
 C        -0.681035         2.344889         1.545494
 H         1.429883         3.275300         1.079038
 H         1.336122         0.408563         3.650010
 H        -0.022230         1.309004         4.182443
 H        -0.620839        -1.024198         2.185746
 H        -2.521176         0.748417         1.617938
 H        -0.729440        -0.558245        -0.222344
 H        -0.333659         1.092161        -0.766722
 H         1.940022        -0.941057         1.196545
 H        -0.635723         2.953956         0.562515
 H        -0.996501         3.072158         2.362710
