19
Iteration:  3141
 O         1.727645         2.702812         1.818041
 C         0.572740         1.837089         1.785889
 C         0.471552         1.076602         3.154267
 C        -0.268531         0.056076         2.341613
 C        -1.283156         0.915885         1.329625
 C        -0.557186         0.418957         0.054138
 C         0.614369         0.442397         1.048494
 O         1.813027        -0.300316         0.831494
 C        -0.789865         2.329937         1.502530
 H         1.637439         3.456172         1.185478
 H         1.464433         0.763302         3.550385
 H        -0.089583         1.534254         4.035798
 H        -0.640107        -0.903505         2.635330
 H        -2.411896         0.680735         1.364431
 H        -0.718193        -0.613941        -0.319717
 H        -0.470666         1.127705        -0.717767
 H         2.486478         0.408774         1.019451
 H        -1.009185         2.773566         0.502057
 H        -1.431025         2.790789         2.271495
