19
Iteration:   820
 O         1.817007         2.627089         2.043051
 C         0.653818         1.808778         1.870466
 C         0.477997         1.071912         3.212328
 C        -0.303063         0.104916         2.233212
 C        -1.372560         0.870095         1.347519
 C        -0.576877         0.362982        -0.010638
 C         0.609424         0.406838         1.033349
 O         1.775648        -0.157147         0.618935
 C        -0.784930         2.326353         1.541866
 H         1.789535         3.437084         1.482605
 H         1.529012         0.809191         3.571407
 H        -0.141832         1.532275         4.046114
 H        -0.569618        -0.922003         2.534760
 H        -2.512673         0.630175         1.466163
 H        -0.923084        -0.659124        -0.344709
 H        -0.756419         1.096080        -0.951482
 H         2.385638         0.576963         0.282986
 H        -0.932434         3.064780         0.682581
 H        -1.206931         2.872172         2.421285
