19
Iteration:  3164charge 0 multiplicity 1
 O         1.784802         2.772511         1.851192
 C         0.688048         1.850186         1.851709
 C         0.408470         1.045852         3.105419
 C        -0.282781         0.115853         2.152665
 C        -1.398245         0.874536         1.379652
 C        -0.718873         0.336222         0.063342
 C         0.642192         0.467402         1.060544
 O         1.863551        -0.251500         0.899515
 C        -0.727839         2.287438         1.495661
 H         1.759290         3.391426         1.113318
 H         1.117234         0.406870         3.629892
 H        -0.091890         1.656609         3.912838
 H        -0.293768        -0.961639         2.272338
 H        -2.468235         0.501878         1.551924
 H        -0.812960        -0.767919         0.028115
 H        -0.954838         0.805917        -0.864072
 H         2.452965         0.498314         0.831842
 H        -0.614198         2.811082         0.493710
 H        -1.210266         2.979183         2.232844
