19
Iteration:  1585charge 0 multiplicity 1
 O         1.786657         2.641415         1.800642
 C         0.686398         1.770535         1.954683
 C         0.393737         0.947646         3.238032
 C        -0.450471         0.090353         2.338587
 C        -1.336257         0.879105         1.281187
 C        -0.485196         0.428562         0.048702
 C         0.606040         0.462274         1.072608
 O         1.829006        -0.008322         0.617265
 C        -0.766444         2.301875         1.526187
 H         1.656302         3.460926         2.307051
 H         1.348763         0.435721         3.554962
 H         0.033696         1.535634         4.105829
 H        -0.576959        -0.910630         2.722854
 H        -2.513619         0.811384         1.196316
 H        -0.702892        -0.638295        -0.187246
 H        -0.307405         1.106691        -0.792891
 H         1.899610        -0.941911         0.403519
 H        -0.626699         3.006480         0.602803
 H        -1.247481         2.834127         2.389719
