19
Iteration:  2095
 O         1.595830         2.803574         1.732177
 C         0.630813         1.795680         1.873972
 C         0.558518         0.930612         3.164050
 C        -0.320659         0.062255         2.214457
 C        -1.348587         0.887315         1.285353
 C        -0.452296         0.693095         0.035171
 C         0.625532         0.405911         1.045802
 O         1.826265        -0.390352         0.997024
 C        -0.801054         2.275284         1.620013
 H         1.257303         3.350304         1.005250
 H         1.655847         0.641684         3.221825
 H        -0.038833         1.336759         3.955555
 H        -0.479099        -1.009993         2.430028
 H        -2.436024         0.894738         1.306515
 H        -0.802826        -0.141938        -0.731184
 H        -0.356235         1.615477        -0.654780
 H         2.351038        -0.159263         0.236397
 H        -0.819907         2.906524         0.716857
 H        -1.208387         2.732553         2.510632
