19
Iteration:  3556
 O         1.734072         2.733857         1.723090
 C         0.656913         1.760959         1.831974
 C         0.475933         0.999092         3.101198
 C        -0.373647         0.041074         2.181408
 C        -1.300310         0.972039         1.327199
 C        -0.549404         0.366562         0.057882
 C         0.648380         0.467193         1.017369
 O         1.830745        -0.259027         0.971424
 C        -0.795292         2.380116         1.609570
 H         1.311717         3.531176         1.307956
 H         1.276443         0.448679         3.552836
 H         0.013284         1.499238         3.924354
 H        -0.467292        -0.989286         2.539961
 H        -2.411960         0.867110         1.512382
 H        -0.906226        -0.667204         0.047656
 H        -0.782763         0.919204        -0.839842
 H         2.542484         0.443632         0.695830
 H        -0.889007         3.006651         0.657555
 H        -1.283839         2.881803         2.486203
