19
Iteration:  4967charge 0 multiplicity 1
 O         1.681096         2.747529         1.683145
 C         0.594819         1.870655         1.776427
 C         0.408162         1.160894         3.083668
 C        -0.301880         0.095893         2.270876
 C        -1.344351         0.807806         1.404952
 C        -0.525097         0.356135         0.132255
 C         0.568200         0.403384         1.109757
 O         1.919545        -0.232743         0.989229
 C        -0.786467         2.322236         1.350680
 H         2.342898         2.230618         2.187716
 H         1.527133         0.796198         3.323785
 H        -0.289680         1.763773         3.789037
 H        -0.628446        -0.872110         2.836336
 H        -2.422095         0.657301         1.541771
 H        -0.541487        -0.759794        -0.067440
 H        -0.712730         0.803449        -0.765583
 H         2.599115         0.410396         0.945581
 H        -0.923846         2.918308         0.370006
 H        -1.338948         3.001541         2.051124
