19
Iteration:  2761
 O         1.638519         2.751946         1.877228
 C         0.661822         1.770883         1.822315
 C         0.455337         1.082477         3.202043
 C        -0.303472         0.047940         2.304268
 C        -1.352425         0.939213         1.315070
 C        -0.553466         0.360824         0.071914
 C         0.547963         0.365146         1.090165
 O         1.922172        -0.108834         0.816212
 C        -0.784056         2.367995         1.385526
 H         2.299649         2.670284         1.142607
 H         1.368044         0.580952         3.532923
 H         0.091993         1.742765         4.029499
 H        -0.661215        -0.858499         2.698722
 H        -2.437396         0.533540         1.610264
 H        -0.756733        -0.596042        -0.307920
 H        -0.411066         1.079149        -0.676990
 H         1.942923        -1.029497         0.485847
 H        -0.643616         2.880473         0.410284
 H        -1.241454         2.892976         2.205711
