19
Iteration:  2390charge 0 multiplicity 1
 O         1.751768         2.513260         1.607059
 C         0.592437         1.823396         1.860821
 C         0.420493         1.033900         3.267631
 C        -0.351456         0.026387         2.335587
 C        -1.392122         0.858210         1.280246
 C        -0.501625         0.545196         0.028243
 C         0.599541         0.392360         1.146568
 O         1.909519        -0.057540         0.911057
 C        -0.800754         2.288346         1.529763
 H         1.745064         3.042846         0.780411
 H         1.351290         0.455248         3.489559
 H         0.084215         1.606176         4.159389
 H        -0.649709        -0.894265         2.636228
 H        -2.520162         0.759874         1.281462
 H        -0.602824        -0.462112        -0.482082
 H        -0.413284         1.339391        -0.786568
 H         2.273162         0.832555         0.918579
 H        -0.752775         2.879127         0.545006
 H        -1.307187         2.914763         2.302872
