19
Iteration:  2038charge 0 multiplicity 1
 O         1.834957         2.591699         1.960790
 C         0.617562         1.814908         1.842720
 C         0.384895         1.000016         3.222645
 C        -0.350932         0.101062         2.261501
 C        -1.330472         0.881769         1.289003
 C        -0.587304         0.320326         0.041410
 C         0.610305         0.398318         1.018962
 O         1.881050        -0.064640         0.677321
 C        -0.817457         2.399146         1.529541
 H         1.813864         3.227918         1.208771
 H         1.324981         0.596200         3.737864
 H        -0.095867         1.566660         4.046150
 H        -0.485057        -1.013068         2.451216
 H        -2.313041         0.777116         1.574654
 H        -1.064503        -0.745869         0.148409
 H        -0.561153         0.711869        -1.007311
 H         2.423945         0.761972         0.662711
 H        -0.941675         3.145857         0.693701
 H        -1.286635         2.935187         2.320515
