19
Iteration:   140
 O         1.596395         2.922594         1.751321
 C         0.742845         1.761080         1.835756
 C         0.393440         0.831205         3.181669
 C        -0.404554         0.020213         2.153062
 C        -1.342890         0.914590         1.267155
 C        -0.546818         0.579357        -0.024042
 C         0.658375         0.502028         1.056898
 O         1.875435        -0.309121         0.834440
 C        -0.759752         2.287295         1.780570
 H         2.491621         2.574459         1.594681
 H         1.319877         0.360874         3.591819
 H        -0.177143         1.388290         3.952281
 H        -0.629846        -1.003765         2.430003
 H        -2.504586         0.672542         1.448943
 H        -0.584341        -0.509220        -0.423079
 H        -0.629402         1.237502        -0.908802
 H         2.582524         0.353821         0.505629
 H        -0.651090         3.106728         1.092259
 H        -1.077472         2.646595         2.844244
