19
Iteration:  2998
 O         1.677123         2.742181         1.709359
 C         0.692418         1.792977         1.928195
 C         0.415827         1.070542         3.240039
 C        -0.364882         0.018091         2.279830
 C        -1.354856         0.884270         1.371686
 C        -0.551144         0.528124         0.028215
 C         0.608600         0.456649         1.063328
 O         1.858644        -0.300602         0.754404
 C        -0.720795         2.291426         1.513210
 H         1.424435         3.287878         0.934382
 H         1.275721         0.713057         3.856193
 H        -0.139101         1.620443         4.023365
 H        -0.480836        -0.963741         2.652348
 H        -2.413021         0.824056         1.424344
 H        -0.786390        -0.533398        -0.338592
 H        -0.375582         1.165830        -0.867918
 H         2.643706        -0.101671         1.415710
 H        -0.810840         2.851130         0.545404
 H        -1.028410         2.949325         2.352604
