19
Iteration:   487
 O         1.755883         2.734688         1.984901
 C         0.660195         1.852813         1.899772
 C         0.391448         0.989220         3.138016
 C        -0.245471         0.027904         2.201653
 C        -1.379102         0.838468         1.368817
 C        -0.702905         0.397987         0.087068
 C         0.569419         0.434443         0.982435
 O         1.872203        -0.121728         0.619920
 C        -0.721827         2.341539         1.551077
 H         2.471870         2.102379         2.135712
 H         1.384986         0.713642         3.511375
 H        -0.194933         1.562895         3.946706
 H        -0.518939        -1.109344         2.497555
 H        -2.409794         0.872423         1.501384
 H        -0.853885        -0.686070        -0.179133
 H        -0.849086         0.968453        -0.855707
 H         2.501609         0.668123         0.609155
 H        -0.664991         2.886889         0.635128
 H        -1.194526         3.016178         2.288157
