19
Iteration:  3500
 O         1.680578         2.707976         1.743387
 C         0.569808         1.816437         1.804192
 C         0.457546         1.084316         3.200559
 C        -0.290951         0.103989         2.242393
 C        -1.346947         0.911687         1.287689
 C        -0.418180         0.483289         0.134326
 C         0.646977         0.426446         1.136482
 O         1.779097        -0.340650         0.826146
 C        -0.822334         2.300562         1.557921
 H         1.653700         3.114554         0.859105
 H         1.548587         0.796843         3.187821
 H        -0.038163         1.374144         4.100374
 H        -0.492560        -0.876539         2.657462
 H        -2.461824         0.659818         1.555562
 H        -0.607870        -0.449264        -0.402936
 H        -0.414533         1.267040        -0.583020
 H         2.468139         0.199091         0.509246
 H        -0.794509         3.023536         0.684026
 H        -1.186505         2.873671         2.477461
