19
Iteration:  2118charge 0 multiplicity 1
 O         1.663008         2.895887         1.777673
 C         0.697102         1.861370         1.861440
 C         0.476600         0.958745         3.199305
 C        -0.294143         0.107392         2.152119
 C        -1.294144         0.906801         1.255864
 C        -0.445451         0.439546         0.017122
 C         0.651195         0.400063         1.015644
 O         1.736009        -0.442623         0.872428
 C        -0.845562         2.364746         1.722315
 H         1.195922         3.611759         1.305577
 H         1.415110         0.424653         3.342755
 H         0.022188         1.439661         4.047191
 H        -0.686973        -0.858990         2.300119
 H        -2.404360         0.726030         1.180919
 H        -0.600913        -0.619163        -0.395002
 H        -0.412467         1.085042        -0.948373
 H         2.530163         0.140635         0.731367
 H        -0.978729         3.252138         1.123180
 H        -1.226221         2.466370         2.743774
