19
Iteration:  4509
 O         1.742974         2.888184         1.676255
 C         0.663623         1.828479         1.829211
 C         0.340168         1.192062         3.195240
 C        -0.323616         0.119734         2.346608
 C        -1.299565         0.851534         1.324332
 C        -0.529211         0.247657         0.124711
 C         0.664972         0.447480         1.058620
 O         1.784750        -0.381731         0.858176
 C        -0.748441         2.257342         1.402349
 H         1.889018         3.556885         2.350118
 H         1.249810         0.795384         3.789281
 H        -0.240187         1.666508         4.031768
 H        -0.547674        -0.899389         2.725845
 H        -2.426169         0.756030         1.527331
 H        -0.534162        -0.809723        -0.181382
 H        -0.488974         0.845704        -0.860911
 H         2.351365         0.336629         0.683123
 H        -1.007511         2.799403         0.408949
 H        -1.317707         2.900980         2.111146
