19
Iteration:  2530
 O         1.786798         2.500944         1.634031
 C         0.573852         1.820776         1.876754
 C         0.449622         1.002764         3.166362
 C        -0.339466         0.132083         2.304730
 C        -1.334338         0.870459         1.336580
 C        -0.507607         0.471173         0.056111
 C         0.604173         0.460222         1.159394
 O         1.907188        -0.101228         0.918426
 C        -0.892894         2.318763         1.495410
 H         1.531960         3.342866         1.205224
 H         1.485434         0.621375         3.252849
 H         0.111965         1.388008         4.108183
 H        -0.573968        -0.873088         2.495738
 H        -2.445728         0.651407         1.386308
 H        -0.805554        -0.538674        -0.230742
 H        -0.406445         1.221840        -0.688408
 H         2.448908         0.708928         0.525954
 H        -1.105233         2.825866         0.558990
 H        -1.395656         2.721815         2.323365
