19
Iteration:  2305
 O         1.627445         2.912496         1.979035
 C         0.678151         1.891933         1.856868
 C         0.442344         1.105672         3.128967
 C        -0.294618         0.084594         2.310894
 C        -1.304758         0.900718         1.295975
 C        -0.506960         0.359112         0.075060
 C         0.644642         0.274243         1.083832
 O         1.827640        -0.442837         0.736949
 C        -0.789419         2.365799         1.482857
 H         1.519343         3.491478         1.199231
 H         1.425274         0.724077         3.387927
 H        -0.116224         1.678361         3.929338
 H        -0.479048        -0.922891         2.608195
 H        -2.427734         0.786814         1.376030
 H        -0.710367        -0.618838        -0.332403
 H        -0.550900         1.132922        -0.670530
 H         2.202366        -0.108902        -0.178416
 H        -0.792980         2.982081         0.586180
 H        -1.197831         2.937148         2.353363
