19
Iteration:  4063
 O         1.675371         2.744619         1.749127
 C         0.620341         1.850489         1.848714
 C         0.488481         1.103483         3.188669
 C        -0.302770         0.111130         2.269761
 C        -1.298697         0.892381         1.324115
 C        -0.574683         0.252346         0.143832
 C         0.642079         0.453224         1.042497
 O         1.787722        -0.281760         0.874828
 C        -0.765844         2.368743         1.402266
 H         1.588313         3.324581         2.509023
 H         1.450288         0.635334         3.595853
 H        -0.029390         1.612853         3.990123
 H        -0.528290        -0.900090         2.375337
 H        -2.399803         0.702662         1.299441
 H        -0.758032        -0.785415        -0.139840
 H        -0.568281         0.726172        -0.886097
 H         2.513788         0.375770         0.697293
 H        -0.656962         2.811498         0.415559
 H        -1.146215         3.094314         2.037002
