19
Iteration:  3333charge 0 multiplicity 1
 O         1.773293         2.746431         1.808460
 C         0.669925         1.870955         1.844128
 C         0.385113         1.068161         3.216629
 C        -0.295499         0.085817         2.160408
 C        -1.300240         0.916192         1.327558
 C        -0.608855         0.324490         0.023082
 C         0.657615         0.383907         1.036409
 O         1.839749        -0.323985         0.891853
 C        -0.817717         2.424529         1.588905
 H         1.543848         3.431139         1.146486
 H         1.344674         0.680103         3.570933
 H        -0.177653         1.574286         3.934572
 H        -0.681172        -0.889281         2.473650
 H        -2.328448         0.653320         1.571629
 H        -1.010310        -0.653570        -0.152842
 H        -0.497906         0.918602        -0.868012
 H         2.463624         0.198473         0.254870
 H        -1.074991         2.760227         0.571433
 H        -1.083594         3.062345         2.449817
