19
Iteration:  3997
 O         1.706800         2.603294         1.477968
 C         0.557346         1.857515         1.854626
 C         0.405298         0.998021         3.210328
 C        -0.311297         0.044864         2.241726
 C        -1.267439         0.871071         1.296612
 C        -0.420416         0.404444         0.121426
 C         0.652257         0.485982         1.118123
 O         1.771682        -0.190756         0.998362
 C        -0.788177         2.375143         1.592118
 H         1.563629         3.533659         1.809429
 H         1.436523         0.640817         3.617413
 H        -0.123759         1.529170         3.991691
 H        -0.433748        -0.952828         2.395075
 H        -2.371449         0.736708         1.115468
 H        -0.785702        -0.623641        -0.082899
 H        -0.458878         1.205528        -0.729839
 H         2.497713         0.386504         0.543714
 H        -0.980290         2.959069         0.681367
 H        -1.345304         2.918945         2.332343
