19
Iteration:  3471
 O         1.828127         2.756333         1.789150
 C         0.675410         1.821544         1.817070
 C         0.331607         1.071500         3.214686
 C        -0.401104         0.075742         2.261615
 C        -1.297982         0.892370         1.355091
 C        -0.644187         0.338571         0.110008
 C         0.619413         0.392373         0.990165
 O         1.877040        -0.175915         0.758368
 C        -0.706785         2.260927         1.542387
 H         1.552033         3.501208         1.246573
 H         1.273008         0.768194         3.573846
 H        -0.354157         1.605079         3.935445
 H        -0.708529        -0.900683         2.652217
 H        -2.323215         0.849245         1.470286
 H        -0.948451        -0.728468         0.196512
 H        -0.883641         0.815890        -0.918804
 H         2.521131         0.373591         1.172563
 H        -0.645464         2.740808         0.561722
 H        -1.088917         2.836947         2.368580
