19
Iteration:  2831
 O         1.603489         2.755269         1.635653
 C         0.620594         1.803014         1.878698
 C         0.462987         1.034224         3.117607
 C        -0.363136         0.031864         2.242885
 C        -1.361323         0.937082         1.304076
 C        -0.536513         0.432369         0.078491
 C         0.653315         0.322736         1.126975
 O         1.891230        -0.199646         0.972928
 C        -0.778149         2.369625         1.524602
 H         2.489252         2.589242         2.043791
 H         1.478727         0.584470         3.328755
 H         0.042889         1.548365         3.991724
 H        -0.519681        -1.057470         2.651743
 H        -2.440801         0.875334         1.350294
 H        -0.644350        -0.574292        -0.359807
 H        -0.463734         1.243754        -0.707532
 H         2.152862         0.170290         0.155899
 H        -0.659659         3.003916         0.651051
 H        -1.147854         2.943702         2.394509
