19
Iteration:  4242
 O         1.709918         2.634429         1.668177
 C         0.652660         1.871573         1.818568
 C         0.334731         1.126249         3.136593
 C        -0.384791         0.105036         2.302797
 C        -1.357144         0.926235         1.341369
 C        -0.557172         0.272096         0.152360
 C         0.670135         0.391353         1.103934
 O         1.956842        -0.218443         0.828457
 C        -0.772666         2.399621         1.444139
 H         1.761892         3.366629         2.338313
 H         1.238402         0.578200         3.406902
 H        -0.129685         1.717338         4.039359
 H        -0.674189        -0.975790         2.598016
 H        -2.391206         0.671541         1.517719
 H        -0.880463        -0.852179        -0.012367
 H        -0.587756         0.731463        -0.894423
 H         2.611589         0.494416         1.204585
 H        -0.864774         2.884281         0.479694
 H        -1.192141         3.006472         2.284735
