19
Iteration:   366
 O         1.819063         2.615772         1.877765
 C         0.657357         1.837607         1.967318
 C         0.341611         0.992694         3.190730
 C        -0.365621         0.031850         2.170612
 C        -1.347387         0.884654         1.295829
 C        -0.589243         0.411718         0.079234
 C         0.617873         0.519796         0.991242
 O         1.856784         0.072989         0.563438
 C        -0.784960         2.293999         1.699963
 H         2.501286         1.915315         1.885860
 H         1.213867         0.364937         3.491916
 H        -0.275485         1.437627         3.978869
 H        -0.472800        -1.197017         2.313758
 H        -2.480258         0.763371         1.463756
 H        -0.626417        -0.701471         0.067176
 H        -0.515782         0.965143        -0.832556
 H         2.328530        -0.487933         1.122255
 H        -0.797752         2.924305         0.778241
 H        -1.459008         2.736302         2.439092
