19
Iteration:  3853
 O         1.656582         2.893072         1.593769
 C         0.643115         1.862628         1.864942
 C         0.459294         0.906229         3.190625
 C        -0.316870         0.088630         2.229812
 C        -1.376737         0.870813         1.259141
 C        -0.464759         0.357750         0.041537
 C         0.613604         0.582857         1.084313
 O         1.778324        -0.329481         1.047157
 C        -0.782452         2.373554         1.575109
 H         2.485920         2.378837         1.670118
 H         1.327744         0.289901         3.415342
 H         0.226588         1.592883         4.065695
 H        -0.452719        -1.063058         2.420445
 H        -2.463935         0.698740         1.356795
 H        -0.560419        -0.731506        -0.047108
 H        -0.498679         0.768624        -0.964322
 H         2.383548        -0.107000         0.225348
 H        -0.850729         3.181267         0.801466
 H        -1.282772         2.862946         2.375153
