19
Iteration:  2769
 O         1.626015         2.784638         1.883274
 C         0.684409         1.779565         1.823991
 C         0.409417         1.103109         3.136995
 C        -0.251544         0.065705         2.354000
 C        -1.312926         0.873177         1.368554
 C        -0.545641         0.428263         0.054545
 C         0.635338         0.323522         1.073481
 O         1.867886        -0.177489         0.833680
 C        -0.800447         2.360252         1.418436
 H         2.301059         2.672810         1.173518
 H         1.327803         0.710997         3.626731
 H        -0.157945         1.585934         3.922860
 H        -0.659289        -0.880056         2.571112
 H        -2.347177         0.874703         1.471976
 H        -0.785219        -0.557722        -0.415618
 H        -0.515183         1.116448        -0.798548
 H         1.858323        -0.911787         0.263086
 H        -0.894441         2.780505         0.378617
 H        -1.267115         3.085680         2.102819
