19
Iteration:  2760charge 0 multiplicity 1
 O         1.644177         2.748222         1.873923
 C         0.652006         1.777443         1.825320
 C         0.462180         1.078997         3.212142
 C        -0.318897         0.046129         2.296538
 C        -1.362742         0.942947         1.309161
 C        -0.554574         0.353488         0.075673
 C         0.544795         0.369381         1.090404
 O         1.929317        -0.101920         0.812914
 C        -0.778169         2.359876         1.386050
 H         2.296535         2.666627         1.139928
 H         1.391204         0.569959         3.510799
 H         0.107398         1.745671         4.017886
 H        -0.642695        -0.836160         2.703268
 H        -2.394990         0.522785         1.589564
 H        -0.771313        -0.619604        -0.283422
 H        -0.397207         1.070135        -0.661421
 H         1.929688        -0.991662         0.542277
 H        -0.622135         2.909231         0.418709
 H        -1.225594         2.882551         2.210653
