19
Iteration:  4405charge 0 multiplicity 1
 O         1.728237         2.612830         1.523879
 C         0.609721         1.835348         1.863255
 C         0.386466         1.156618         3.193996
 C        -0.400272         0.060592         2.374516
 C        -1.353423         0.894138         1.305137
 C        -0.447273         0.366825         0.132266
 C         0.623894         0.368117         1.176023
 O         1.906132        -0.153034         0.893280
 C        -0.806303         2.306215         1.442569
 H         1.786473         3.409004         2.053901
 H         1.219841         0.649559         3.627940
 H        -0.190272         1.710200         3.910336
 H        -0.670893        -0.984612         2.732544
 H        -2.390074         0.787779         1.309091
 H        -0.737436        -0.740797        -0.119396
 H        -0.341859         0.974461        -0.787806
 H         2.491469         0.661467         0.544672
 H        -0.740886         2.800525         0.517083
 H        -1.342957         2.902332         2.195457
