19
Iteration:   291charge 0 multiplicity 1
 O         1.731754         2.699752         1.921162
 C         0.581900         1.898466         1.943321
 C         0.470220         0.916251         3.053903
 C        -0.285142         0.015987         2.125397
 C        -1.350525         0.927295         1.272071
 C        -0.516560         0.494471        -0.035179
 C         0.645890         0.487627         0.957330
 O         1.872420        -0.219205         0.744514
 C        -0.866174         2.351069         1.821319
 H         1.812268         2.896729         0.965065
 H         1.506929         0.579844         3.348936
 H         0.022218         1.266994         4.037656
 H        -0.528272        -1.195769         2.218706
 H        -2.489784         0.860236         1.249319
 H        -1.001523        -0.517984        -0.211340
 H        -0.527197         1.176618        -0.869319
 H         2.358393        -0.473082         1.628121
 H        -1.081930         3.162173         1.113855
 H        -1.304370         2.853679         2.723882
