19
Iteration:  1186
 O         1.752175         2.600524         1.578122
 C         0.621289         1.857666         1.871990
 C         0.522111         0.911834         3.152095
 C        -0.355775         0.035193         2.224654
 C        -1.325929         0.845084         1.254181
 C        -0.446151         0.707842         0.077025
 C         0.581488         0.426822         1.111009
 O         1.838984        -0.224893         0.802547
 C        -0.929135         2.337091         1.783768
 H         1.511074         3.518812         1.394945
 H         1.570170         0.408959         3.223487
 H         0.074635         1.363753         4.117503
 H        -0.600878        -1.057196         2.511786
 H        -2.438716         0.575143         1.159536
 H        -0.580344        -0.267900        -0.486999
 H        -0.164632         1.573770        -0.581488
 H         2.464375         0.219934         1.498953
 H        -1.293486         3.126333         1.101675
 H        -1.429325         2.451349         2.779029
