19
Iteration:   154charge 0 multiplicity 1
 O         1.556986         2.800109         1.787406
 C         0.663667         1.760314         1.959926
 C         0.384208         0.843774         3.219501
 C        -0.325197         0.006104         2.144667
 C        -1.332000         0.958553         1.371084
 C        -0.530421         0.550501         0.063521
 C         0.666591         0.446594         0.969718
 O         1.867170        -0.194756         0.784105
 C        -0.688510         2.319479         1.600923
 H         2.440478         2.582631         1.414246
 H         1.172837         0.269739         3.599531
 H        -0.210619         1.271474         3.994201
 H        -0.649544        -0.970861         2.211318
 H        -2.387468         0.877097         1.385024
 H        -0.825751        -0.411953        -0.215050
 H        -0.533066         1.248321        -0.783085
 H         2.608057         0.391071         0.611510
 H        -0.814754         2.988580         0.769994
 H        -1.067377         2.835144         2.433792
