19
Iteration:  1593
 O         1.785759         2.638913         1.771883
 C         0.693743         1.806171         1.900586
 C         0.401848         0.970367         3.193537
 C        -0.427021         0.062225         2.246280
 C        -1.414335         0.926267         1.339835
 C        -0.490992         0.428662         0.038413
 C         0.610589         0.493207         1.100024
 O         1.870371        -0.030892         0.680923
 C        -0.739951         2.272416         1.619975
 H         1.568640         3.529885         2.082734
 H         1.226265         0.406309         3.563025
 H        -0.204871         1.364089         4.026076
 H        -0.821366        -0.934729         2.502622
 H        -2.410755         0.835513         1.344967
 H        -0.486724        -0.583077        -0.345418
 H        -0.314135         0.985228        -0.938787
 H         1.800382        -1.016016         0.528450
 H        -0.781652         2.803016         0.755321
 H        -1.088876         2.766920         2.484198
