19
Iteration:  3985charge 0 multiplicity 1
 O         1.739601         2.596689         1.477919
 C         0.631604         1.815652         1.866958
 C         0.390959         1.034433         3.184096
 C        -0.350684         0.055129         2.261371
 C        -1.355241         0.914642         1.330373
 C        -0.518559         0.441664         0.080242
 C         0.608635         0.393709         1.126661
 O         1.947424        -0.151923         1.007190
 C        -0.859939         2.351837         1.554888
 H         1.635179         3.514254         1.796580
 H         1.352659         0.519658         3.458005
 H        -0.101639         1.487179         4.058494
 H        -0.702591        -0.943217         2.504302
 H        -2.412506         0.668581         1.522937
 H        -0.732424        -0.569877        -0.355873
 H        -0.396115         1.195387        -0.815177
 H         2.489306         0.527422         0.678999
 H        -0.787913         2.970177         0.652798
 H        -1.309501         2.809983         2.395236
