19
Iteration:  4835charge 0 multiplicity 1
 O         1.684128         2.848157         1.775077
 C         0.612694         1.910458         1.844373
 C         0.390373         1.162703         3.174240
 C        -0.296579         0.098058         2.304558
 C        -1.344733         0.875821         1.353055
 C        -0.555525         0.269237         0.118466
 C         0.631783         0.341688         1.165073
 O         1.874189        -0.337726         0.788534
 C        -0.718356         2.288096         1.376397
 H         1.443202         3.294291         0.938215
 H         1.306712         0.736425         3.688919
 H        -0.071301         1.725407         4.048795
 H        -0.627968        -0.856113         2.632672
 H        -2.376400         0.830209         1.530716
 H        -0.694136        -0.844409        -0.197095
 H        -0.466061         0.909910        -0.764809
 H         2.417485         0.364477         1.251057
 H        -0.543671         2.785152         0.386017
 H        -1.370457         2.918800         1.951102
