19
Iteration:   949
 O         1.759452         2.764103         1.982087
 C         0.679810         1.845959         1.917684
 C         0.372075         0.966482         3.165942
 C        -0.356603         0.038159         2.215886
 C        -1.286340         0.936777         1.317922
 C        -0.612338         0.338492         0.116323
 C         0.639065         0.448254         0.974790
 O         1.782428        -0.183263         0.495687
 C        -0.696730         2.321478         1.603989
 H         1.599317         3.443597         2.662593
 H         1.360643         0.418362         3.311181
 H        -0.153110         1.430101         4.013928
 H        -0.728002        -0.996330         2.576054
 H        -2.351206         0.871676         1.359659
 H        -0.872666        -0.714215        -0.037815
 H        -0.628599         0.836922        -0.873239
 H         2.568242         0.141364         0.960595
 H        -0.750260         2.938965         0.719113
 H        -0.995796         2.977378         2.417587
