19
Iteration:   600
 O         1.605244         2.756794         1.826967
 C         0.661423         1.783658         1.897824
 C         0.547584         0.837807         3.103972
 C        -0.385461         0.004625         2.184577
 C        -1.313849         0.971935         1.318830
 C        -0.565566         0.510872         0.002780
 C         0.572105         0.426151         1.029729
 O         1.851207        -0.212813         0.853374
 C        -0.692178         2.358085         1.715358
 H         1.546297         3.064021         0.892106
 H         1.567658         0.422572         3.151363
 H         0.292414         1.256450         4.060542
 H        -0.652199        -0.988470         2.401741
 H        -2.399582         0.931212         1.254529
 H        -0.874260        -0.421743        -0.407947
 H        -0.533195         1.250898        -0.778981
 H         2.338037         0.531060         0.482042
 H        -0.737431         3.159039         0.952451
 H        -1.157449         2.757258         2.594984
