19
Iteration:  1459
 O         1.785753         2.684370         1.687487
 C         0.667378         1.839120         1.878718
 C         0.379507         0.983282         3.172584
 C        -0.324780         0.022139         2.132404
 C        -1.328469         0.920412         1.321475
 C        -0.528559         0.552036         0.008954
 C         0.635643         0.505815         1.049463
 O         1.910016        -0.237643         0.969092
 C        -0.831449         2.313938         1.698428
 H         1.376771         3.355128         1.130329
 H         1.320502         0.529724         3.598108
 H        -0.326112         1.413567         3.882719
 H        -0.614319        -1.047263         2.281591
 H        -2.408366         0.658180         1.563947
 H        -0.939038        -0.465903        -0.338118
 H        -0.693507         1.239660        -0.955682
 H         1.972769        -0.709399         0.055644
 H        -0.972143         3.094401         0.967626
 H        -1.280573         2.535099         2.687134
