19
Iteration:  1543charge 0 multiplicity 1
 O         1.783072         2.725823         1.875145
 C         0.678208         1.815740         1.828616
 C         0.313489         1.052710         3.140282
 C        -0.307852         0.001395         2.193780
 C        -1.320256         0.884735         1.393580
 C        -0.631311         0.376486         0.119719
 C         0.646646         0.491367         0.975457
 O         1.851963        -0.081140         0.762315
 C        -0.682818         2.359148         1.542976
 H         2.274504         2.472553         2.687065
 H         1.049012         0.442842         3.742811
 H        -0.403439         1.515468         3.829889
 H        -0.424940        -1.074085         2.306814
 H        -2.491986         0.593149         1.516496
 H        -0.873089        -0.701412        -0.088788
 H        -0.911165         0.844089        -0.803944
 H         1.835626        -0.490565        -0.064613
 H        -0.786644         2.814629         0.453218
 H        -1.187608         2.893196         2.403544
