19
Iteration:  1124
 O         1.784010         2.676520         2.037880
 C         0.631390         1.850805         1.944910
 C         0.512883         0.927428         3.151656
 C        -0.335106         0.086570         2.247398
 C        -1.369083         0.934456         1.334687
 C        -0.661931         0.399039         0.056278
 C         0.535987         0.347082         0.969940
 O         1.867671        -0.101337         0.704225
 C        -0.727701         2.374348         1.459095
 H         1.710761         3.281390         1.273957
 H         1.482805         0.429919         3.434979
 H         0.296578         1.197889         4.135864
 H        -0.614684        -1.119511         2.440687
 H        -2.483308         0.736149         1.639972
 H        -0.813663        -0.696752        -0.075700
 H        -0.525911         0.896961        -0.880386
 H         2.246855         0.624920         0.142027
 H        -0.845744         2.733828         0.443429
 H        -1.330831         3.065347         2.129387
