19
Iteration:  2055charge 0 multiplicity 1
 O         1.767474         2.592926         1.828509
 C         0.631408         1.827462         1.921426
 C         0.380509         1.007156         3.135480
 C        -0.307479         0.055333         2.178657
 C        -1.385066         0.989070         1.270046
 C        -0.569983         0.334596         0.106538
 C         0.642383         0.498965         1.026892
 O         1.895076        -0.106768         0.826966
 C        -0.773743         2.312826         1.645608
 H         1.748558         3.120080         0.996443
 H         1.281825         0.612084         3.524736
 H        -0.204663         1.411719         3.991655
 H        -0.691810        -0.906664         2.346267
 H        -2.537167         0.803238         1.122271
 H        -0.622972        -0.679877        -0.058999
 H        -0.649423         0.824105        -0.858373
 H         2.345528         0.419301         0.062639
 H        -0.821089         3.078645         0.859234
 H        -1.274919         2.621306         2.635409
