19
Iteration:  1194charge 0 multiplicity 1
 O         1.707139         2.606183         1.620891
 C         0.637157         1.770311         1.908404
 C         0.533758         0.964677         3.116525
 C        -0.344327         0.003658         2.193994
 C        -1.375157         0.900912         1.344716
 C        -0.408206         0.663047         0.070155
 C         0.631842         0.439166         1.109843
 O         1.800246        -0.201743         0.788693
 C        -0.930317         2.307673         1.701025
 H         1.407495         3.527192         1.609084
 H         1.420184         0.414856         3.214192
 H         0.388591         1.223199         4.177601
 H        -0.585786        -0.887977         2.503020
 H        -2.364766         0.746542         1.117534
 H        -0.643502        -0.257790        -0.429551
 H        -0.231097         1.562495        -0.568220
 H         2.504600         0.256249         1.413480
 H        -1.159220         3.062898         0.916353
 H        -1.209654         2.667007         2.664149
