19
Iteration:  3932
 O         1.809718         2.601043         1.639377
 C         0.604763         1.937846         1.883382
 C         0.346155         1.055474         3.318092
 C        -0.316552         0.082357         2.337119
 C        -1.387993         0.911083         1.289303
 C        -0.469887         0.240836         0.121843
 C         0.654097         0.463920         1.058830
 O         1.824747        -0.152049         0.753427
 C        -0.851034         2.388746         1.448487
 H         2.126864         2.974636         2.479495
 H         1.397708         0.774559         3.679202
 H        -0.291757         1.367709         4.135085
 H        -0.362617        -0.945583         2.458377
 H        -2.501578         0.917774         1.324739
 H        -0.815401        -0.744335         0.186902
 H        -0.480810         0.714967        -0.789571
 H         2.637440         0.406870         0.730751
 H        -0.826006         2.711829         0.375020
 H        -1.405628         3.061801         2.156313
