19
Iteration:  3409
 O         1.850505         2.643332         1.741921
 C         0.650898         1.738980         1.819293
 C         0.373834         1.123421         3.225790
 C        -0.394491         0.084776         2.282202
 C        -1.412354         0.840395         1.365678
 C        -0.536038         0.421797         0.093674
 C         0.640396         0.398510         1.017264
 O         1.860788        -0.147369         0.793326
 C        -0.822110         2.337135         1.593285
 H         2.034201         2.996225         0.864633
 H         1.225420         0.748233         3.870838
 H        -0.332571         1.829962         3.768195
 H        -0.463741        -1.015897         2.364405
 H        -2.482166         0.648821         1.287639
 H        -0.772797        -0.599376        -0.119716
 H        -0.523966         0.935999        -0.830445
 H         2.424359         0.578082         0.870548
 H        -0.790137         2.987573         0.700597
 H        -1.113598         2.996669         2.411981
