19
Iteration:   233charge 0 multiplicity 1
 O         1.721559         2.663926         1.849175
 C         0.626962         1.824756         1.923014
 C         0.373807         0.811183         3.270669
 C        -0.254731         0.029423         2.166651
 C        -1.293595         0.930346         1.341215
 C        -0.518962         0.561990         0.046826
 C         0.646284         0.481157         1.046923
 O         1.825278        -0.164743         0.722410
 C        -0.779887         2.341101         1.586152
 H         1.291130         3.526073         1.692856
 H         1.270023         0.290142         3.650712
 H        -0.251822         1.208044         4.059075
 H        -0.594453        -1.097428         2.088601
 H        -2.355615         0.781424         1.502853
 H        -0.848362        -0.361981        -0.386869
 H        -0.542795         1.266798        -0.796377
 H         2.250662         0.321516         0.051071
 H        -0.672012         2.845456         0.601631
 H        -1.303036         2.858756         2.335813
