19
Iteration:  4927
 O         1.805272         2.641357         1.494505
 C         0.595157         1.853786         1.853304
 C         0.315082         1.084390         3.236784
 C        -0.423124         0.095952         2.347149
 C        -1.344268         0.864928         1.260582
 C        -0.476414         0.292224         0.142370
 C         0.645534         0.396094         1.172050
 O         1.905382        -0.098785         0.920698
 C        -0.801771         2.310107         1.468702
 H         1.830211         3.548332         1.880175
 H         1.142458         0.550361         3.675169
 H        -0.078365         1.592185         4.062634
 H        -0.807703        -0.911448         2.723745
 H        -2.449411         0.673979         1.380375
 H        -0.624964        -0.784671        -0.002450
 H        -0.476917         0.753972        -0.966624
 H         2.579118         0.638766         0.616021
 H        -0.696334         2.870563         0.566684
 H        -1.322849         3.000824         2.160421
