19
Iteration:  3123
 O         1.741172         2.723117         1.713229
 C         0.645814         1.818027         1.935272
 C         0.453856         1.139523         3.190781
 C        -0.434331         0.088594         2.263479
 C        -1.406195         0.840165         1.285225
 C        -0.400816         0.410270         0.142473
 C         0.657895         0.293927         1.106055
 O         1.831157        -0.236985         0.755064
 C        -0.829310         2.357331         1.555805
 H         1.407099         3.203489         0.904190
 H         1.342796         0.584699         3.406559
 H         0.037737         1.644597         4.038379
 H        -0.677603        -0.923660         2.707152
 H        -2.506232         0.693451         1.324133
 H        -0.864888        -0.474297        -0.323624
 H        -0.062140         1.189033        -0.729137
 H         2.606058         0.396676         0.810569
 H        -0.940037         3.029781         0.642472
 H        -1.157640         2.884937         2.494770
