19
Iteration:  1878charge 0 multiplicity 1
 O         1.874930         2.523115         1.933674
 C         0.628060         1.813247         1.935866
 C         0.383739         1.087725         3.189400
 C        -0.302174         0.053543         2.361476
 C        -1.366827         0.869835         1.302295
 C        -0.555053         0.370215         0.059992
 C         0.536022         0.427852         1.073505
 O         1.905583         0.106134         0.622362
 C        -0.854494         2.277909         1.455754
 H         2.074279         2.997381         1.103054
 H         1.315569         0.735187         3.729039
 H        -0.255707         1.572145         3.884278
 H        -0.586243        -1.012293         2.601346
 H        -2.485841         0.694463         1.529894
 H        -0.722779        -0.622077        -0.165935
 H        -0.558589         1.064692        -0.739555
 H         1.887117        -0.810554         0.352384
 H        -0.910098         2.917288         0.571341
 H        -1.283703         2.986892         2.218031
