19
Iteration:  1113charge 0 multiplicity 1
 O         1.800806         2.652463         2.140867
 C         0.624407         1.903385         1.924733
 C         0.536599         1.013451         3.119099
 C        -0.314879         0.095356         2.225182
 C        -1.337037         0.889967         1.318817
 C        -0.666018         0.298718         0.071810
 C         0.585962         0.424668         0.994015
 O         1.793376        -0.134569         0.647937
 C        -0.773194         2.328021         1.460103
 H         2.035528         3.415750         1.579837
 H         1.522770         0.488664         3.202721
 H         0.076046         1.552508         3.871690
 H        -0.633488        -1.073104         2.484427
 H        -2.468542         0.644452         1.478592
 H        -1.033862        -0.737930        -0.114116
 H        -0.848383         0.865915        -0.821733
 H         2.306530         0.568107         0.083827
 H        -0.491994         2.888639         0.581748
 H        -1.256051         3.043261         2.194225
