19
Iteration:    97charge 0 multiplicity 1
 O         1.611766         2.751368         1.847454
 C         0.612559         1.803646         1.907760
 C         0.556047         0.933892         3.087373
 C        -0.328292        -0.002359         2.256234
 C        -1.385896         0.851125         1.350427
 C        -0.511493         0.604090         0.020375
 C         0.645512         0.526897         1.009842
 O         1.860546        -0.300317         0.813234
 C        -0.805519         2.382294         1.601967
 H         1.981479         2.910992         2.711977
 H         1.477705         0.342756         3.170501
 H         0.256445         1.406554         4.019744
 H        -0.347060        -1.080816         2.343496
 H        -2.567098         0.568527         1.230478
 H        -0.730295        -0.292935        -0.630216
 H        -0.548918         1.404497        -0.718175
 H         2.142809        -0.084182        -0.083103
 H        -0.858107         2.792097         0.637129
 H        -1.178193         3.009832         2.460465
