19
Iteration:    57
 O         1.742068         2.674640         1.821996
 C         0.624611         1.878467         1.972951
 C         0.299883         0.948637         3.240392
 C        -0.294596        -0.023022         2.135507
 C        -1.355463         0.896014         1.333935
 C        -0.579178         0.299301         0.072752
 C         0.627166         0.439061         0.971726
 O         1.868159        -0.097047         0.592748
 C        -0.722389         2.455732         1.673500
 H         2.179995         2.806313         2.692628
 H         1.149998         0.537378         3.732691
 H        -0.348160         1.433846         3.992021
 H        -0.362436        -1.014494         2.411371
 H        -2.357118         0.884401         1.395514
 H        -0.787320        -0.720756         0.070621
 H        -0.639273         0.745076        -0.941338
 H         2.565731         0.616213         0.402611
 H        -0.615997         3.185327         0.816399
 H        -1.166552         2.942878         2.486317
