19
Iteration:  4079
 O         1.831084         2.772055         1.656687
 C         0.651596         1.898000         1.920957
 C         0.352063         1.047673         3.227188
 C        -0.391466         0.158963         2.288747
 C        -1.392276         0.832406         1.307204
 C        -0.558444         0.322495         0.098725
 C         0.632980         0.496028         1.091065
 O         1.853682        -0.224751         0.828296
 C        -0.765193         2.221832         1.388284
 H         2.090233         3.287174         2.420010
 H         1.271973         0.560120         3.415631
 H        -0.069111         1.511838         4.167021
 H        -0.542355        -0.896932         2.768996
 H        -2.450547         0.826838         1.520980
 H        -0.702740        -0.833987         0.131489
 H        -0.812201         0.660445        -0.898246
 H         2.725204         0.333658         0.790656
 H        -0.743642         2.713888         0.390617
 H        -1.487785         2.742401         2.173260
