19
Iteration:  2301charge 0 multiplicity 1
 O         1.629387         2.922657         1.970374
 C         0.663603         1.915239         1.858297
 C         0.466609         1.119947         3.146629
 C        -0.289837         0.076059         2.259771
 C        -1.280250         0.915212         1.263607
 C        -0.517589         0.363500         0.103828
 C         0.649410         0.266473         1.068102
 O         1.829493        -0.462522         0.741615
 C        -0.812155         2.355596         1.524349
 H         1.579236         3.585084         1.256272
 H         1.387263         0.549543         3.484205
 H        -0.105869         1.742205         3.823740
 H        -0.546420        -0.909144         2.649905
 H        -2.357772         0.792076         1.352844
 H        -0.738063        -0.670903        -0.246372
 H        -0.448403         1.040579        -0.744113
 H         2.075750        -0.165880        -0.099629
 H        -0.856180         3.033326         0.597651
 H        -1.301898         2.879601         2.365434
