19
Iteration:   312charge 0 multiplicity 1
 O         1.759852         2.711672         1.974528
 C         0.691987         1.809460         1.922648
 C         0.436910         0.904540         3.219549
 C        -0.312308         0.025809         2.143931
 C        -1.351046         0.840924         1.338165
 C        -0.580024         0.556498         0.076961
 C         0.633570         0.505698         1.000015
 O         1.794997        -0.038121         0.637641
 C        -0.773256         2.269138         1.526743
 H         2.051343         2.636062         1.049697
 H         1.330244         0.445336         3.718237
 H        -0.147588         1.279914         4.099107
 H        -0.767412        -1.117223         2.330779
 H        -2.440767         0.569926         1.541504
 H        -0.656802        -0.501556        -0.307342
 H        -0.546885         1.241270        -0.751034
 H         2.165001        -0.621496         1.261528
 H        -0.966262         2.936977         0.683053
 H        -1.260335         2.810771         2.358028
