19
Iteration:  1111
 O         1.802734         2.651570         2.153829
 C         0.636852         1.900171         1.908936
 C         0.524819         1.023412         3.116336
 C        -0.304238         0.088554         2.212751
 C        -1.336478         0.880615         1.324650
 C        -0.665257         0.286116         0.076261
 C         0.593299         0.446000         0.998508
 O         1.784780        -0.141518         0.638323
 C        -0.773948         2.326945         1.466510
 H         2.019175         3.422915         1.590392
 H         1.519828         0.545150         3.219555
 H         0.058737         1.562118         3.896305
 H        -0.639676        -1.027433         2.514223
 H        -2.445272         0.721251         1.429676
 H        -1.046179        -0.731905        -0.129550
 H        -0.883760         0.857798        -0.810849
 H         2.302876         0.518971         0.113375
 H        -0.525715         2.913265         0.588373
 H        -1.274502         3.019525         2.193434
