19
Iteration:    41
 O         1.763559         2.561858         1.822845
 C         0.607328         1.796044         1.926063
 C         0.349451         0.974270         3.183945
 C        -0.324916         0.079063         2.242127
 C        -1.329373         0.929090         1.347284
 C        -0.570511         0.412604         0.117038
 C         0.665248         0.511310         1.055251
 O         1.899563        -0.027889         0.538440
 C        -0.820568         2.309163         1.559734
 H         2.302684         2.414930         2.638690
 H         1.320557         0.571207         3.602716
 H        -0.195705         1.398670         4.038412
 H        -0.756903        -0.977849         2.367748
 H        -2.527305         0.607074         1.480624
 H        -0.780456        -0.717164         0.002819
 H        -0.583927         0.994877        -0.803033
 H         2.544603         0.494881         1.140756
 H        -0.928594         2.974431         0.714974
 H        -1.337174         2.949192         2.358136
