19
Iteration:  1614
 O         1.751137         2.648127         1.707583
 C         0.654538         1.799409         1.887148
 C         0.376897         0.878084         3.156890
 C        -0.284183         0.002115         2.133433
 C        -1.287898         0.940231         1.345448
 C        -0.652202         0.563252         0.055147
 C         0.635019         0.467346         0.989569
 O         1.928954        -0.135994         0.919298
 C        -0.809849         2.394743         1.669024
 H         1.452538         3.562606         1.521279
 H         1.276109         0.512509         3.566389
 H        -0.217402         1.377229         3.944780
 H        -0.428841        -1.079028         2.306104
 H        -2.246759         0.719942         1.335006
 H        -1.065811        -0.370490        -0.337081
 H        -0.633517         1.228219        -0.870766
 H         2.003934        -1.019989         0.675506
 H        -0.833579         3.043363         0.895465
 H        -1.181550         2.681666         2.610297
