19
Iteration:  1339
 O         1.678850         2.743294         1.751153
 C         0.609911         1.810195         1.877001
 C         0.578231         0.868054         3.069190
 C        -0.387345         0.089194         2.207995
 C        -1.331756         0.926731         1.324661
 C        -0.493642         0.548637         0.019766
 C         0.580761         0.464757         1.059213
 O         1.851368        -0.106747         0.970452
 C        -0.800193         2.275916         1.656051
 H         1.980041         2.788079         0.823221
 H         1.560510         0.256533         3.081360
 H         0.247724         1.047778         4.116036
 H        -0.615761        -1.010215         2.315768
 H        -2.479611         0.730434         1.202993
 H        -0.787129        -0.312692        -0.624640
 H        -0.354017         1.281695        -0.833874
 H         1.637802        -1.008992         0.901346
 H        -0.915156         2.963885         0.838283
 H        -1.243626         2.679842         2.594370
