19
Iteration:  1279charge 0 multiplicity 1
 O         1.797907         2.627304         1.788096
 C         0.636326         1.848803         1.944850
 C         0.454554         1.055172         3.212438
 C        -0.324870         0.014161         2.295396
 C        -1.351625         0.849615         1.361537
 C        -0.513433         0.509233         0.019804
 C         0.596254         0.438340         1.108889
 O         1.843818        -0.113409         0.660382
 C        -0.858100         2.288046         1.539088
 H         1.998467         2.831634         2.727921
 H         1.372463         0.709062         3.604351
 H        -0.258946         1.467230         3.908112
 H        -0.549349        -1.023008         2.551704
 H        -2.356484         0.712852         1.257224
 H        -0.646157        -0.468990        -0.429052
 H        -0.331594         1.395019        -0.643759
 H         1.729649        -0.194191        -0.258214
 H        -0.920967         2.815156         0.551797
 H        -1.383768         2.881518         2.285238
