19
Iteration:   533
 O         1.730524         2.568533         1.735760
 C         0.632599         1.760144         1.934972
 C         0.452299         0.951794         3.190627
 C        -0.412191        -0.068487         2.278244
 C        -1.353047         0.932181         1.349747
 C        -0.556412         0.516612         0.105396
 C         0.653984         0.388727         1.056905
 O         1.910590        -0.041277         0.621167
 C        -0.821793         2.418567         1.580662
 H         1.846718         3.206459         2.454536
 H         1.362018         0.450604         3.481125
 H        -0.047963         1.401421         4.073039
 H        -0.750428        -1.152717         2.457226
 H        -2.350302         0.786992         1.515751
 H        -0.904855        -0.410901        -0.321166
 H        -0.540628         1.207637        -0.698985
 H         2.620455         0.615223         0.763133
 H        -0.876380         3.018919         0.699344
 H        -1.175313         3.027825         2.411148
