19
Iteration:  1136
 O         1.733959         2.700168         1.875674
 C         0.657851         1.790979         1.913810
 C         0.459197         0.853584         3.203102
 C        -0.332256        -0.006764         2.194042
 C        -1.346903         0.966957         1.389346
 C        -0.609981         0.427824         0.068028
 C         0.611295         0.427049         1.052902
 O         1.869417        -0.100167         0.753030
 C        -0.740636         2.354582         1.512931
 H         1.597853         3.299878         1.121459
 H         1.452271         0.376194         3.203027
 H        -0.041702         1.215633         4.056624
 H        -0.817681        -1.036758         2.561251
 H        -2.487757         1.018109         1.360194
 H        -1.020718        -0.526883        -0.296750
 H        -0.653845         1.139967        -0.757976
 H         2.358622         0.580695         0.352127
 H        -0.660747         2.906332         0.563968
 H        -1.172809         3.040348         2.292275
