19
Iteration:  3874charge 0 multiplicity 1
 O         1.591298         2.828942         1.714102
 C         0.648056         1.910579         1.887299
 C         0.529347         1.037711         3.146992
 C        -0.301969         0.088567         2.218983
 C        -1.345151         0.920407         1.280731
 C        -0.583633         0.409421         0.095331
 C         0.645115         0.330625         1.057832
 O         1.852328        -0.319171         0.987726
 C        -0.774669         2.338594         1.460303
 H         2.511246         2.549872         1.939012
 H         1.488454         0.614621         3.410883
 H        -0.019979         1.339517         4.124965
 H        -0.703446        -0.988839         2.534500
 H        -2.404870         0.785714         1.514424
 H        -0.911658        -0.596706        -0.264165
 H        -0.703612         0.926983        -0.905452
 H         2.468911         0.233799         0.463390
 H        -0.784007         2.984263         0.555471
 H        -1.264190         2.954855         2.147085
