19
Iteration:  3511charge 0 multiplicity 1
 O         1.626131         2.708620         1.709631
 C         0.617434         1.869539         1.865509
 C         0.496913         1.040713         3.120133
 C        -0.310817         0.049401         2.318364
 C        -1.301445         0.885181         1.342096
 C        -0.446590         0.588069         0.068809
 C         0.650235         0.455281         1.084211
 O         1.769064        -0.365920         0.915179
 C        -0.813207         2.313260         1.552215
 H         1.771369         3.036140         0.791133
 H         1.531409         0.612140         3.403239
 H         0.228579         1.498751         4.059021
 H        -0.637945        -0.976933         2.429865
 H        -2.437193         0.607649         1.156294
 H        -0.664475        -0.449708        -0.230478
 H        -0.289298         1.258985        -0.741489
 H         2.434169         0.210084         0.391078
 H        -1.086798         2.855478         0.612548
 H        -1.302983         2.830875         2.442122
