19
Iteration:  1775charge 0 multiplicity 1
 O         1.625342         2.775470         1.627681
 C         0.684776         1.836183         1.908212
 C         0.473539         0.884025         3.222545
 C        -0.304163        -0.032139         2.180968
 C        -1.327826         0.854522         1.385734
 C        -0.574251         0.655549        -0.071332
 C         0.614156         0.467495         1.006362
 O         1.859320        -0.155461         0.925720
 C        -0.752909         2.301612         1.679041
 H         2.508115         2.390299         1.482528
 H         1.420862         0.588517         3.569755
 H        -0.081920         1.398122         4.039384
 H        -0.550027        -1.011460         2.530975
 H        -2.362017         0.791360         1.502818
 H        -0.774231        -0.189766        -0.691818
 H        -0.560340         1.480180        -0.713165
 H         1.705636        -1.097999         0.772672
 H        -1.016287         2.945523         0.837080
 H        -1.219366         2.577537         2.590957
