19
Iteration:  2628
 O         1.619505         2.957203         1.890125
 C         0.675593         1.905757         1.850432
 C         0.442525         1.082426         3.085677
 C        -0.300554         0.028845         2.250450
 C        -1.359695         0.874684         1.366149
 C        -0.600382         0.376066         0.075497
 C         0.662178         0.416200         1.048569
 O         1.882990        -0.372118         0.887486
 C        -0.766097         2.290571         1.445315
 H         2.523915         2.680686         1.611040
 H         1.407318         0.643995         3.482059
 H        -0.060593         1.590322         3.905057
 H        -0.490902        -0.964814         2.542031
 H        -2.511919         0.667838         1.514449
 H        -0.954114        -0.625418        -0.166094
 H        -0.515123         0.977873        -0.785013
 H         2.071873        -0.422425        -0.091827
 H        -0.743001         2.818756         0.453146
 H        -1.228044         2.972885         2.154756
