19
Iteration:  3441
 O         1.809779         2.549839         1.838511
 C         0.549150         1.832656         1.877630
 C         0.475106         1.044871         3.232684
 C        -0.345088         0.089305         2.340660
 C        -1.337487         0.916928         1.343034
 C        -0.579677         0.321303         0.134936
 C         0.582287         0.382286         1.044522
 O         1.843656        -0.058988         0.689810
 C        -0.793110         2.387513         1.379627
 H         1.788290         3.326438         1.225401
 H         1.535547         0.779402         3.514099
 H         0.034684         1.507321         4.217697
 H        -0.661081        -0.930831         2.622499
 H        -2.397318         0.788848         1.395185
 H        -0.880523        -0.712306         0.121586
 H        -0.591527         0.743103        -0.860424
 H         2.502748         0.433260         1.327593
 H        -0.547487         2.693160         0.349511
 H        -1.268193         3.203377         1.910884
