19
Iteration:  1209charge 0 multiplicity 1
 O         1.682757         2.680551         1.694674
 C         0.616147         1.795501         1.891446
 C         0.513942         0.869492         3.216614
 C        -0.364605         0.043747         2.261619
 C        -1.363584         0.909290         1.342091
 C        -0.527918         0.560749         0.013808
 C         0.612213         0.476852         1.037924
 O         1.836964        -0.189076         0.760495
 C        -0.738470         2.302414         1.645797
 H         1.412339         3.586693         1.942718
 H         1.539766         0.356467         3.442239
 H         0.032081         1.465166         4.015462
 H        -0.621035        -1.108687         2.342933
 H        -2.480872         0.720588         1.591943
 H        -0.812586        -0.434338        -0.476268
 H        -0.425070         1.362329        -0.749225
 H         2.626258         0.309350         1.045271
 H        -0.687272         2.880640         0.717256
 H        -1.288014         2.884044         2.443118
