19
Iteration:   969
 O         1.789932         2.653730         1.967517
 C         0.637097         1.780801         1.993111
 C         0.481352         0.930411         3.247584
 C        -0.356090         0.073944         2.280006
 C        -1.375791         0.957563         1.330299
 C        -0.518145         0.389141         0.061703
 C         0.570836         0.374255         1.068164
 O         1.815271        -0.122059         0.490669
 C        -0.750862         2.370840         1.479612
 H         1.455345         3.580039         1.995161
 H         1.401338         0.397798         3.568829
 H        -0.109452         1.445977         3.944057
 H        -0.662860        -0.979612         2.412656
 H        -2.384398         0.842222         1.413856
 H        -0.847507        -0.609842        -0.171064
 H        -0.597036         0.955975        -0.805712
 H         2.347745         0.775125         0.394332
 H        -0.672741         2.998299         0.636606
 H        -1.284775         2.944504         2.268965
