19
Iteration:  3961
 O         1.788199         2.576889         1.583636
 C         0.669544         1.737800         1.785055
 C         0.416005         1.090570         3.179950
 C        -0.467039         0.100938         2.345881
 C        -1.387574         0.867915         1.310564
 C        -0.632808         0.392598         0.089789
 C         0.655904         0.396506         1.032782
 O         1.986418        -0.052799         0.958772
 C        -0.782031         2.286145         1.513971
 H         1.612626         3.342304         2.195753
 H         1.295776         0.590662         3.516437
 H         0.007664         1.804835         3.961590
 H        -0.680594        -1.009829         2.696968
 H        -2.480905         0.837266         1.373112
 H        -1.055264        -0.573366        -0.375034
 H        -0.847289         1.211748        -0.768461
 H         2.615884         0.733194         1.248971
 H        -0.714973         2.821015         0.536435
 H        -1.217817         2.766414         2.347871
