19
Iteration:  2559charge 0 multiplicity 1
 O         1.798539         2.602079         1.488412
 C         0.633998         1.804891         1.883711
 C         0.423411         0.961170         3.185812
 C        -0.374880         0.067668         2.257352
 C        -1.398936         0.880582         1.359748
 C        -0.595337         0.372674        -0.006085
 C         0.523928         0.396110         1.119800
 O         1.951148         0.001816         0.954914
 C        -0.735403         2.316682         1.585685
 H         1.671736         3.379587         2.085621
 H         1.459496         0.717545         3.550267
 H        -0.238714         1.415032         3.976599
 H        -0.669747        -1.085363         2.439440
 H        -2.465698         0.760394         1.464472
 H        -0.902720        -0.657373        -0.198572
 H        -0.535896         1.074034        -0.871703
 H         2.583219         0.717835         1.356326
 H        -0.819707         2.818142         0.573129
 H        -1.208108         2.983859         2.405226
