19
Iteration:   646charge 0 multiplicity 1
 O         1.844601         2.668024         1.983582
 C         0.624225         1.894752         1.943485
 C         0.332134         1.087650         3.215798
 C        -0.234453        -0.005006         2.175340
 C        -1.306791         0.864207         1.323625
 C        -0.542613         0.373448         0.117903
 C         0.692585         0.470355         0.971840
 O         1.713891        -0.194667         0.484978
 C        -0.829034         2.330577         1.590744
 H         1.760608         3.610519         1.783269
 H         1.225621         0.689462         3.772357
 H        -0.305684         1.521343         3.961814
 H        -0.563245        -0.959693         2.447274
 H        -2.457439         0.646381         1.734980
 H        -0.838880        -0.647178         0.010499
 H        -0.602127         0.776825        -0.869661
 H         2.554679        -0.116161         1.053730
 H        -0.741010         3.064188         0.703533
 H        -1.213276         3.033774         2.345956
