19
Iteration:  3917
 O         1.794242         2.695260         1.696018
 C         0.613908         1.840388         1.937871
 C         0.326929         1.137364         3.265215
 C        -0.298944         0.130398         2.293587
 C        -1.323382         0.862715         1.295710
 C        -0.596708         0.327070         0.170862
 C         0.648722         0.477820         1.128462
 O         1.886439        -0.262609         0.701791
 C        -0.824170         2.329123         1.392813
 H         2.228028         2.870635         2.574531
 H         1.157258         0.619936         3.682265
 H        -0.247479         1.786625         4.009544
 H        -0.732205        -0.901611         2.680585
 H        -2.361543         0.543500         1.391231
 H        -0.588867        -0.777734        -0.076000
 H        -0.676600         0.772341        -0.918578
 H         2.435132         0.559892         0.347585
 H        -0.685156         2.933568         0.485358
 H        -1.388397         2.799148         2.153069
