19
Iteration:  3051
 O         1.822182         2.567857         1.839350
 C         0.689642         1.770241         1.844478
 C         0.481845         1.123109         3.148766
 C        -0.331971         0.184172         2.271320
 C        -1.370423         0.882792         1.283418
 C        -0.623734         0.335711         0.123351
 C         0.537606         0.416143         1.040484
 O         1.854302        -0.090734         0.852136
 C        -0.848242         2.252666         1.480598
 H         1.678635         3.335880         1.230052
 H         1.451096         0.513767         3.365005
 H         0.282214         1.749883         4.064941
 H        -0.743811        -0.816387         2.555742
 H        -2.366718         0.611069         1.193030
 H        -0.775505        -0.684847        -0.260552
 H        -0.535643         1.013216        -0.658152
 H         2.468391         0.754170         0.686405
 H        -0.966387         2.903594         0.603875
 H        -1.146868         2.788828         2.368344
