19
Iteration:  3999charge 0 multiplicity 1
 O         1.692275         2.613327         1.487829
 C         0.561432         1.869186         1.862088
 C         0.416048         1.001037         3.217806
 C        -0.294731         0.048703         2.244512
 C        -1.262515         0.860633         1.296780
 C        -0.427042         0.412000         0.098237
 C         0.630747         0.506708         1.126421
 O         1.752161        -0.204102         0.990651
 C        -0.779788         2.357392         1.577419
 H         1.627748         3.531839         1.778841
 H         1.437683         0.639400         3.636335
 H        -0.174845         1.503178         3.967657
 H        -0.406204        -0.958601         2.377286
 H        -2.350335         0.773206         1.019754
 H        -0.690128        -0.654379         0.048004
 H        -0.375437         1.135128        -0.690766
 H         2.558684         0.298376         0.522046
 H        -1.004187         2.937404         0.669004
 H        -1.281381         2.959123         2.450857
