19
Iteration:   748charge 0 multiplicity 1
 O         1.767921         2.743116         1.820788
 C         0.665414         1.860145         1.831029
 C         0.525954         0.952497         3.132930
 C        -0.336087         0.051255         2.205925
 C        -1.375145         0.845802         1.315685
 C        -0.558802         0.606254         0.029228
 C         0.570262         0.453005         1.023418
 O         1.871020        -0.209520         0.877186
 C        -0.853313         2.285893         1.696733
 H         1.864990         3.091633         0.901182
 H         1.467813         0.470179         3.209101
 H         0.109479         1.452775         4.049380
 H        -0.598043        -1.074095         2.266781
 H        -2.510304         0.504712         1.393858
 H        -0.683707        -0.344855        -0.506667
 H        -0.361058         1.328804        -0.707626
 H         1.642542        -0.869813         0.147811
 H        -1.144532         3.093256         1.026322
 H        -1.079894         2.547519         2.758755
