19
Iteration:  4660
 O         1.548533         2.972965         1.716306
 C         0.652450         1.899312         1.752323
 C         0.451823         1.104875         3.167664
 C        -0.310791         0.165910         2.311252
 C        -1.283658         0.937629         1.377543
 C        -0.540842         0.313740         0.117123
 C         0.657373         0.351079         1.082568
 O         1.920807        -0.475528         0.989494
 C        -0.792786         2.337883         1.352367
 H         2.247297         2.759649         2.348881
 H         1.389133         0.722975         3.505137
 H        -0.180010         1.568628         3.829624
 H        -0.807917        -0.730753         2.548695
 H        -2.286728         0.617440         1.308912
 H        -0.645047        -0.837479         0.050862
 H        -0.572346         0.751151        -0.925169
 H         2.098397        -0.398600         0.036885
 H        -0.965799         2.840599         0.397506
 H        -1.204604         2.818195         2.196412
