19
Iteration:   841charge 0 multiplicity 1
 O         1.828354         2.568746         1.874461
 C         0.561685         1.822000         1.907730
 C         0.441709         0.968587         3.148349
 C        -0.337748         0.011810         2.198555
 C        -1.344181         0.874928         1.372850
 C        -0.600524         0.534745         0.139738
 C         0.582729         0.481696         0.993908
 O         1.891671        -0.067752         0.793211
 C        -0.802710         2.326491         1.543406
 H         1.892658         3.057843         1.043361
 H         1.439162         0.488383         3.407968
 H        -0.168699         1.298949         4.015668
 H        -0.395323        -1.057410         2.434725
 H        -2.391081         0.812195         1.475401
 H        -0.880053        -0.496656        -0.184559
 H        -0.445700         1.156979        -0.812235
 H         2.240300         0.101144        -0.039766
 H        -0.882136         2.847146         0.580687
 H        -1.352548         2.921269         2.269401
