19
Iteration:  3969
 O         1.777912         2.584741         1.556719
 C         0.622420         1.779415         1.793626
 C         0.450502         1.051054         3.210052
 C        -0.459929         0.124914         2.328248
 C        -1.458178         0.868512         1.334548
 C        -0.652607         0.455729         0.032430
 C         0.654217         0.397540         1.059315
 O         2.054161        -0.104413         0.982076
 C        -0.734913         2.228264         1.514759
 H         1.664241         3.451198         2.038790
 H         1.302794         0.582962         3.659273
 H        -0.030906         1.696542         3.980216
 H        -0.713961        -0.885223         2.832355
 H        -2.539723         0.872350         1.231393
 H        -1.027291        -0.535036        -0.383958
 H        -0.581922         1.135837        -0.846838
 H         2.426111         0.819123         1.080096
 H        -1.093491         2.795195         0.652298
 H        -1.181146         2.893233         2.368799
