19
Iteration:    50
 O         1.746031         2.599587         1.813899
 C         0.566163         1.849057         1.980759
 C         0.307353         0.999216         3.211812
 C        -0.302455         0.043337         2.163252
 C        -1.382223         0.906331         1.321726
 C        -0.549956         0.340960         0.146267
 C         0.646643         0.479864         0.999087
 O         1.906285        -0.075981         0.541208
 C        -0.739012         2.420718         1.640843
 H         2.262985         2.574316         2.658823
 H         1.291505         0.528167         3.535114
 H        -0.370748         1.333975         4.044034
 H        -0.515489        -1.085752         2.302571
 H        -2.503755         0.788269         1.547764
 H        -0.721013        -0.784913        -0.018312
 H        -0.640508         0.748295        -0.891106
 H         2.677232         0.553820         0.803380
 H        -0.681401         3.019792         0.699515
 H        -1.210269         2.865840         2.573181
