19
Iteration:  4555
 O         1.766282         2.708876         1.541882
 C         0.579021         1.867631         1.843566
 C         0.451623         1.102247         3.172789
 C        -0.409089         0.100794         2.346067
 C        -1.384403         0.851580         1.303609
 C        -0.516561         0.296372         0.102613
 C         0.660429         0.462313         1.139899
 O         1.849802        -0.162649         0.962521
 C        -0.795862         2.294860         1.424676
 H         2.270527         2.761136         2.372892
 H         1.381827         0.625532         3.542758
 H         0.077374         1.640669         4.077670
 H        -0.801645        -0.904461         2.642418
 H        -2.380918         0.674323         1.278945
 H        -0.708589        -0.705093         0.058156
 H        -0.603876         0.670935        -0.926443
 H         2.589249         0.446976         0.964086
 H        -0.730315         2.727975         0.414275
 H        -1.390482         3.003627         2.015730
