19
Iteration:  4087charge 0 multiplicity 1
 O         1.883793         2.764916         1.598337
 C         0.637889         1.848581         1.906163
 C         0.324865         1.081351         3.196013
 C        -0.397752         0.116183         2.276891
 C        -1.376346         0.832257         1.325441
 C        -0.575595         0.283506         0.135569
 C         0.667288         0.452852         1.161337
 O         1.860588        -0.177333         0.815221
 C        -0.833936         2.256955         1.447227
 H         2.092144         3.135452         2.466879
 H         1.232380         0.518130         3.587947
 H        -0.178206         1.598652         4.053532
 H        -0.669261        -0.923488         2.635803
 H        -2.521117         0.820182         1.322216
 H        -0.558928        -0.761775        -0.318476
 H        -0.624703         0.780336        -0.890142
 H         2.581080         0.568391         0.945926
 H        -0.786820         2.795679         0.521613
 H        -1.246619         2.994200         2.181825
