19
Iteration:  4670
 O         1.542230         2.978224         1.735530
 C         0.658365         1.914494         1.775030
 C         0.383823         1.166391         3.101894
 C        -0.278669         0.076131         2.297813
 C        -1.249798         0.896781         1.354590
 C        -0.504759         0.270818         0.126425
 C         0.702233         0.268245         1.092575
 O         1.893367        -0.450327         0.977204
 C        -0.822273         2.386659         1.386613
 H         2.384846         2.792306         2.186241
 H         1.240186         0.683160         3.534341
 H        -0.040753         1.783418         3.900132
 H        -0.618330        -0.792838         2.779327
 H        -2.339598         0.818042         1.568700
 H        -1.275829        -0.551748        -0.244586
 H        -0.442722         0.930902        -0.819336
 H         2.201704        -0.497259         0.097278
 H        -0.928691         2.910058         0.437292
 H        -1.232414         3.112179         2.056920
