19
Iteration:   277
 O         1.653242         2.748344         1.871908
 C         0.618540         1.833268         1.916361
 C         0.537051         0.904575         3.124547
 C        -0.325114         0.055040         2.045214
 C        -1.297103         1.004180         1.282582
 C        -0.519194         0.585605         0.006363
 C         0.630787         0.362413         0.973784
 O         1.864984        -0.261918         0.782551
 C        -0.866976         2.325280         1.792478
 H         1.753415         3.277513         1.062858
 H         1.502668         0.359166         3.275041
 H         0.055165         1.301448         4.005158
 H        -0.832804        -1.034707         2.384588
 H        -2.351592         0.601918         1.355178
 H        -0.758125        -0.430910        -0.355799
 H        -0.395884         1.185749        -0.905386
 H         2.284181         0.001804         1.561422
 H        -1.069410         3.236269         1.177715
 H        -1.228944         2.265778         2.784435
