19
Iteration:   545
 O         1.762717         2.524289         1.684963
 C         0.615652         1.732835         1.870320
 C         0.416269         0.927467         3.207958
 C        -0.278273         0.026817         2.234810
 C        -1.336861         0.895805         1.420374
 C        -0.546029         0.633955         0.034909
 C         0.585811         0.428554         1.005185
 O         1.871973        -0.082474         0.744908
 C        -0.821680         2.306020         1.641684
 H         1.518640         3.381007         2.099956
 H         1.402207         0.662511         3.558007
 H        -0.138309         1.414551         4.005738
 H        -0.620304        -0.971809         2.475249
 H        -2.389195         0.695789         1.390355
 H        -0.834489        -0.207426        -0.514216
 H        -0.407586         1.503665        -0.532637
 H         2.397281         0.676161         0.926315
 H        -0.899315         2.906806         0.733134
 H        -1.213707         2.827825         2.504304
