19
Iteration:  2532
 O         1.774206         2.480406         1.627393
 C         0.581941         1.819390         1.880328
 C         0.452557         0.998687         3.162311
 C        -0.335648         0.117102         2.307580
 C        -1.332425         0.878216         1.338738
 C        -0.514391         0.475824         0.072754
 C         0.594115         0.473281         1.150361
 O         1.906112        -0.082100         0.927290
 C        -0.884367         2.313014         1.473206
 H         1.499336         3.342304         1.246549
 H         1.440577         0.561106         3.227398
 H         0.187417         1.456824         4.108922
 H        -0.536478        -0.849409         2.500216
 H        -2.425763         0.631324         1.364333
 H        -0.811099        -0.556063        -0.216285
 H        -0.405083         1.306871        -0.690487
 H         2.501902         0.675748         0.606227
 H        -1.096475         2.839711         0.554309
 H        -1.392246         2.692987         2.320866
