19
Iteration:   243
 O         1.674857         2.747277         1.816225
 C         0.661102         1.764880         2.004934
 C         0.428814         0.861315         3.212018
 C        -0.349627        -0.038622         2.111273
 C        -1.340672         0.881385         1.326749
 C        -0.488710         0.663084         0.058825
 C         0.615120         0.481997         1.066476
 O         1.796132        -0.209792         0.746115
 C        -0.702810         2.263358         1.599188
 H         1.330790         3.576217         1.409028
 H         1.346292         0.352393         3.484108
 H        -0.006502         1.251576         4.104687
 H        -0.636906        -1.111047         2.281528
 H        -2.392154         0.773879         1.427082
 H        -0.524500        -0.328691        -0.304767
 H        -0.551254         1.461641        -0.703832
 H         2.364447         0.452485         0.330358
 H        -0.575945         2.899004         0.692252
 H        -1.184705         2.925459         2.249364
