19
Iteration:  2160charge 0 multiplicity 1
 O         1.710719         2.626345         1.960345
 C         0.591749         1.808131         1.827807
 C         0.419520         1.027030         3.167307
 C        -0.328678         0.054596         2.316270
 C        -1.331508         0.895330         1.390665
 C        -0.577575         0.359737         0.115671
 C         0.621517         0.414665         1.058636
 O         1.847715        -0.088444         0.650822
 C        -0.687340         2.344842         1.376820
 H         1.578755         3.344999         1.304616
 H         1.434707         0.669178         3.613490
 H        -0.291730         1.488812         3.898434
 H        -0.556386        -0.949750         2.657148
 H        -2.329152         0.601722         1.676578
 H        -0.915214        -0.620506        -0.383996
 H        -0.539264         1.109447        -0.728459
 H         2.556263         0.375368         1.261076
 H        -0.741235         2.782320         0.330787
 H        -1.038541         3.123780         2.069939
