19
Iteration:  3765
 O         1.733664         2.744060         1.794699
 C         0.659112         1.870185         1.795026
 C         0.358564         1.046575         3.229592
 C        -0.327628         0.163435         2.214148
 C        -1.434315         0.897839         1.308363
 C        -0.661446         0.187459         0.136520
 C         0.664099         0.454460         0.988219
 O         1.931183        -0.164144         0.879593
 C        -0.719169         2.322211         1.498679
 H         2.574145         2.240584         1.874358
 H         1.289805         0.772114         3.671642
 H        -0.113246         1.762724         3.957624
 H        -0.726221        -0.938725         2.344072
 H        -2.513516         0.803401         1.270968
 H        -0.863526        -0.849793         0.210093
 H        -0.750308         0.615802        -0.783065
 H         2.468965         0.514141         0.277846
 H        -0.852055         2.924331         0.548738
 H        -1.037467         2.963039         2.309920
