19
Iteration:   768
 O         1.615018         2.768160         1.856347
 C         0.688389         1.804478         1.950342
 C         0.510221         0.916471         3.209731
 C        -0.264292         0.011914         2.216860
 C        -1.303510         0.957073         1.357716
 C        -0.516676         0.541447         0.027266
 C         0.613596         0.446582         1.027043
 O         1.802334        -0.200325         0.686697
 C        -0.739241         2.300879         1.612952
 H         1.649416         3.225649         0.996061
 H         1.424009         0.385018         3.387560
 H         0.027179         1.508228         4.019034
 H        -0.580857        -1.035488         2.563203
 H        -2.573503         0.851382         1.370135
 H        -0.927272        -0.369461        -0.437617
 H        -0.576708         1.329289        -0.718748
 H         1.654194        -1.090071         0.916466
 H        -0.647971         2.844510         0.597067
 H        -1.396890         2.913269         2.315461
