19
Iteration:  3965charge 0 multiplicity 1
 O         1.784908         2.581945         1.573275
 C         0.644873         1.758365         1.779052
 C         0.430417         1.072854         3.203130
 C        -0.475856         0.105720         2.345201
 C        -1.431267         0.864238         1.318194
 C        -0.645798         0.423618         0.055849
 C         0.664373         0.400112         1.039962
 O         2.029224        -0.076621         0.972153
 C        -0.748136         2.253725         1.521269
 H         1.618603         3.354428         2.104392
 H         1.369857         0.566390         3.634191
 H         0.019245         1.747636         3.933949
 H        -0.653183        -0.816186         2.737028
 H        -2.543536         0.874872         1.278392
 H        -1.063228        -0.428213        -0.393584
 H        -0.772629         1.097180        -0.759420
 H         2.476631         0.756357         1.179404
 H        -0.928966         2.780613         0.560517
 H        -1.217016         2.815630         2.355254
