19
Iteration:  2138charge 0 multiplicity 1
 O         1.744007         2.851224         1.858969
 C         0.693739         1.909892         1.931215
 C         0.439171         1.000874         3.176077
 C        -0.341489         0.029514         2.197055
 C        -1.362444         0.938889         1.268090
 C        -0.588090         0.366277         0.062123
 C         0.658329         0.460430         1.043657
 O         1.815315        -0.311688         0.737084
 C        -0.754092         2.258786         1.577871
 H         1.376001         3.664829         1.476103
 H         1.307982         0.324018         3.523847
 H        -0.061858         1.543366         4.014285
 H        -0.527909        -1.026740         2.455116
 H        -2.432538         0.817623         1.318614
 H        -0.885991        -0.750376        -0.048958
 H        -0.573528         0.734751        -0.997829
 H         2.532597         0.139536         1.097984
 H        -0.759145         2.963141         0.673964
 H        -1.277618         2.770354         2.391688
