19
Iteration:  4647charge 0 multiplicity 1
 O         1.584783         2.935555         1.673509
 C         0.654605         1.888877         1.849282
 C         0.458054         1.180558         3.176605
 C        -0.324680         0.130418         2.249397
 C        -1.382261         0.842562         1.224003
 C        -0.505027         0.244053         0.143314
 C         0.687376         0.420933         1.099007
 O         1.806377        -0.388315         0.987115
 C        -0.735272         2.289078         1.433332
 H         2.310980         2.790126         2.313129
 H         1.375180         0.717851         3.523547
 H         0.106104         1.681661         4.092341
 H        -0.340346        -0.888776         2.579431
 H        -2.478639         0.910843         1.488923
 H        -0.792976        -0.892886        -0.039969
 H        -0.505671         0.807128        -0.832019
 H         2.253623        -0.331243         0.108156
 H        -0.652329         2.868106         0.515053
 H        -1.191650         3.016275         2.098248
