19
Iteration:  4386charge 0 multiplicity 1
 O         1.734255         2.728646         1.662669
 C         0.694422         1.760742         1.774295
 C         0.319175         1.178379         3.261545
 C        -0.383028         0.201222         2.312344
 C        -1.378506         0.825518         1.344024
 C        -0.585405         0.283814         0.121163
 C         0.710490         0.443405         1.081335
 O         1.927510        -0.269210         0.866633
 C        -0.752056         2.272205         1.428234
 H         1.543369         3.401551         2.325717
 H         1.269000         0.885404         3.590993
 H        -0.209216         1.854765         3.956671
 H        -0.623944        -0.703222         2.747105
 H        -2.440137         0.683611         1.297863
 H        -0.771295        -0.721702        -0.232019
 H        -0.709431         0.880562        -0.750510
 H         2.444385         0.524379         0.454326
 H        -0.773340         2.863579         0.526578
 H        -1.227197         2.775612         2.251033
