19
Iteration:  4432charge 0 multiplicity 1
 O         1.742174         2.514273         1.424722
 C         0.595071         1.876112         1.795684
 C         0.414645         1.068968         3.255473
 C        -0.343233         0.061753         2.266482
 C        -1.373087         0.888044         1.326726
 C        -0.515442         0.364882         0.083741
 C         0.629787         0.526649         1.149216
 O         1.929517        -0.107948         1.069135
 C        -0.844577         2.319662         1.473846
 H         2.031101         3.325359         1.840932
 H         1.343499         0.471306         3.530300
 H        -0.260858         1.445092         4.068212
 H        -0.489845        -0.981253         2.535364
 H        -2.543225         0.773576         1.420849
 H        -0.753817        -0.623938        -0.209332
 H        -0.559384         0.818043        -0.935575
 H         2.473607         0.743960         1.266733
 H        -0.823961         2.928846         0.483129
 H        -1.334564         2.708984         2.393408
