19
Iteration:  3637charge 0 multiplicity 1
 O         1.860614         2.566497         1.708312
 C         0.576030         1.811372         1.851940
 C         0.435556         1.047273         3.228364
 C        -0.327833         0.009585         2.282584
 C        -1.369967         0.912892         1.324887
 C        -0.558356         0.333987         0.156709
 C         0.591419         0.444615         1.092488
 O         1.883263        -0.072746         0.772337
 C        -0.824298         2.386605         1.457670
 H         1.762936         3.490173         1.979255
 H         1.357479         0.616066         3.618001
 H        -0.357042         1.378255         3.896369
 H        -0.849350        -0.877455         2.718889
 H        -2.439560         0.728968         1.364232
 H        -0.932344        -0.694500        -0.082157
 H        -0.537165         0.803467        -0.927909
 H         2.463716         0.749343         0.870057
 H        -0.795663         2.859551         0.420243
 H        -1.252327         3.071848         2.228653
