19
Iteration:  3679charge 0 multiplicity 1
 O         1.678284         2.732017         1.538080
 C         0.696352         1.865012         1.857511
 C         0.485283         0.931525         3.186905
 C        -0.274282         0.052313         2.210110
 C        -1.381366         0.973299         1.319145
 C        -0.531464         0.473280         0.018200
 C         0.604779         0.352672         1.091875
 O         1.862291        -0.286539         1.014459
 C        -0.871264         2.370370         1.599726
 H         1.794875         3.429882         2.234791
 H         1.410079         0.654800         3.628649
 H        -0.077523         1.561793         3.929615
 H        -0.488198        -1.070031         2.412722
 H        -2.425144         0.762667         1.353708
 H        -0.804310        -0.564403        -0.300719
 H        -0.423702         1.032734        -0.989695
 H         2.451663         0.368155         0.748530
 H        -0.978127         3.080047         0.675565
 H        -1.260448         2.776689         2.576057
