19
Iteration:  3330
 O         1.787734         2.747920         1.803854
 C         0.650420         1.877385         1.874665
 C         0.367015         1.057667         3.188048
 C        -0.274550         0.073516         2.177705
 C        -1.318855         0.921820         1.346259
 C        -0.615268         0.343854         0.022224
 C         0.682000         0.374747         1.014980
 O         1.849289        -0.330496         0.882094
 C        -0.824762         2.437308         1.577795
 H         1.628332         3.410417         1.123921
 H         1.306650         0.715160         3.642599
 H        -0.338484         1.597100         3.961862
 H        -0.652242        -0.930536         2.496262
 H        -2.290390         0.773604         1.665189
 H        -0.957201        -0.667059        -0.081594
 H        -0.439511         0.808927        -0.931301
 H         2.412522         0.187901         0.239616
 H        -1.117629         2.744413         0.582474
 H        -1.144593         3.029504         2.427221
