19
Iteration:  1949
 O         1.619456         2.827082         1.823156
 C         0.650816         1.784169         1.859920
 C         0.608808         0.947279         3.085369
 C        -0.304479         0.093465         2.190887
 C        -1.380696         0.845387         1.331492
 C        -0.545152         0.587977        -0.038079
 C         0.663647         0.488593         1.042536
 O         1.809425        -0.246919         0.958068
 C        -0.798659         2.241196         1.635413
 H         2.050665         3.042548         0.972864
 H         1.518222         0.429139         3.314587
 H         0.163704         1.468429         3.998064
 H        -0.568182        -0.934574         2.385226
 H        -2.386493         0.642397         1.546477
 H        -0.783340        -0.410195        -0.536898
 H        -0.321749         1.433208        -0.734521
 H         1.534785        -1.102941         0.654291
 H        -0.847205         2.931192         0.782519
 H        -1.369309         2.757544         2.353054
