19
Iteration:  1368
 O         1.824732         2.615239         1.856524
 C         0.641555         1.816602         1.890172
 C         0.374794         1.076644         3.226635
 C        -0.271285         0.090436         2.240622
 C        -1.346826         0.867198         1.333593
 C        -0.569149         0.496958         0.043554
 C         0.617471         0.415187         1.019149
 O         1.889297        -0.126116         0.679344
 C        -0.841650         2.296840         1.603021
 H         1.709592         3.478176         1.387807
 H         1.283684         0.685604         3.615558
 H        -0.396085         1.432014         3.914614
 H        -0.476839        -0.920928         2.354891
 H        -2.411714         0.540947         1.288451
 H        -0.966619        -0.484096        -0.399609
 H        -0.468717         1.354600        -0.760632
 H         1.732382        -0.992861         1.081131
 H        -0.876698         2.956176         0.686210
 H        -1.215937         2.796644         2.492272
