19
Iteration:  1959
 O         1.667284         2.849496         1.855777
 C         0.681398         1.857100         1.795727
 C         0.547589         0.984984         3.167592
 C        -0.337950         0.033947         2.154283
 C        -1.370958         0.890398         1.298496
 C        -0.499811         0.491038         0.028122
 C         0.647272         0.441439         0.978507
 O         1.874860        -0.276145         0.878226
 C        -0.882637         2.292385         1.696155
 H         2.038515         3.050028         0.969065
 H         1.447909         0.485719         3.421622
 H         0.115452         1.572204         4.050321
 H        -0.712978        -0.909125         2.442776
 H        -2.460532         0.842399         1.316207
 H        -0.791499        -0.447099        -0.454489
 H        -0.515794         1.274879        -0.756303
 H         1.564349        -1.137197         0.782793
 H        -1.140530         2.982510         0.885824
 H        -1.048238         2.612113         2.692223
