19
Iteration:  3023charge 0 multiplicity 1
 O         1.768695         2.712828         1.690919
 C         0.685044         1.847802         1.914154
 C         0.249501         0.995968         3.203824
 C        -0.298384         0.044512         2.279805
 C        -1.284161         0.933870         1.369969
 C        -0.540899         0.373175         0.155863
 C         0.621380         0.394350         1.059182
 O         1.843755        -0.227481         0.732990
 C        -0.757538         2.392502         1.526541
 H         1.437985         3.418455         1.120690
 H         1.137289         0.600290         3.639227
 H        -0.242600         1.391283         4.084732
 H        -0.652115        -0.962206         2.589403
 H        -2.431747         0.758171         1.310223
 H        -0.834185        -0.695029        -0.055986
 H        -0.457087         0.895095        -0.882792
 H         2.602471         0.408745         0.916789
 H        -0.826491         2.937214         0.539256
 H        -1.042566         3.079930         2.358027
