19
Iteration:  2291
 O         1.656857         2.937820         1.936579
 C         0.638158         1.969456         1.890629
 C         0.483041         1.112157         3.145586
 C        -0.275015         0.103524         2.178190
 C        -1.282621         0.934360         1.277129
 C        -0.481567         0.352177         0.057345
 C         0.690920         0.331560         0.990770
 O         1.788536        -0.490960         0.796747
 C        -0.804227         2.294488         1.596249
 H         1.504877         3.640824         1.282433
 H         1.300393         0.642734         3.805063
 H        -0.006854         1.558206         4.045961
 H        -0.781538        -0.757988         2.507048
 H        -2.360748         0.647531         1.266915
 H        -1.064314        -0.610708         0.044020
 H        -0.276516         0.649698        -0.888438
 H         2.001078        -0.347372        -0.087252
 H        -1.050826         3.019111         0.716207
 H        -1.423159         2.624014         2.466075
