19
Iteration:  1688
 O         1.725104         2.716062         1.932665
 C         0.653929         1.872226         1.956458
 C         0.332328         1.025432         3.216302
 C        -0.268978         0.065802         2.181736
 C        -1.311658         0.842284         1.348284
 C        -0.607236         0.438672         0.092334
 C         0.616415         0.416505         0.994750
 O         1.933881        -0.124789         0.605625
 C        -0.743865         2.365206         1.615280
 H         2.361062         2.454267         1.251745
 H         1.082642         0.579989         3.807052
 H        -0.469333         1.498007         3.824888
 H        -0.511201        -0.967355         2.471500
 H        -2.388102         0.821412         1.489571
 H        -1.012173        -0.529109        -0.120151
 H        -0.795228         1.018637        -0.779991
 H         1.736615        -1.013070         0.115344
 H        -0.802979         2.775262         0.550554
 H        -1.201239         2.988824         2.435035
