19
Iteration:  2490charge 0 multiplicity 1
 O         1.598222         2.876064         1.854954
 C         0.698036         1.844974         1.837844
 C         0.413513         1.073838         3.225399
 C        -0.294413         0.130470         2.207466
 C        -1.295951         0.913834         1.342143
 C        -0.590776         0.376710         0.085202
 C         0.709760         0.422674         1.046770
 O         1.800321        -0.387904         0.793505
 C        -0.703294         2.238205         1.502406
 H         1.594348         3.406674         1.039164
 H         1.310225         0.650106         3.648641
 H        -0.341387         1.402086         3.989613
 H        -0.497496        -0.890809         2.462351
 H        -2.355359         0.839482         1.604978
 H        -0.680897        -0.749013         0.006747
 H        -0.857227         0.971392        -0.906606
 H         2.452638         0.161177         0.440994
 H        -0.627867         2.849141         0.562565
 H        -1.031794         2.926300         2.330068
