19
Iteration:  3143charge 0 multiplicity 1
 O         1.735199         2.707096         1.824622
 C         0.576138         1.834074         1.791549
 C         0.473438         1.079703         3.169277
 C        -0.275713         0.049635         2.332231
 C        -1.286122         0.900028         1.333022
 C        -0.578128         0.403134         0.059534
 C         0.624221         0.466598         1.015135
 O         1.813510        -0.301129         0.843297
 C        -0.775633         2.335788         1.496800
 H         1.608869         3.438007         1.183855
 H         1.473327         0.814671         3.516754
 H        -0.114483         1.505965         4.016431
 H        -0.678046        -0.928083         2.640287
 H        -2.428225         0.730371         1.397374
 H        -0.739423        -0.624960        -0.326323
 H        -0.498771         1.172208        -0.764825
 H         2.567529         0.405214         1.039874
 H        -1.051766         2.753935         0.484322
 H        -1.428373         2.790571         2.273883
