19
Iteration:  2332
 O         1.699520         2.745959         1.874004
 C         0.686991         1.827311         1.891109
 C         0.434085         1.041646         3.199176
 C        -0.287121         0.087751         2.225595
 C        -1.291437         0.877371         1.336239
 C        -0.592008         0.400415         0.129227
 C         0.611429         0.421792         1.080596
 O         1.797876        -0.218881         0.807694
 C        -0.778544         2.278348         1.400790
 H         1.699082         3.275223         1.054706
 H         1.269223         0.538177         3.778735
 H        -0.104480         1.705871         3.880812
 H        -0.522214        -1.033811         2.424495
 H        -2.339542         0.798957         1.495294
 H        -0.685258        -0.708194        -0.075276
 H        -0.771644         1.080523        -0.868480
 H         2.559901         0.387059         0.446989
 H        -0.555429         2.659123         0.382810
 H        -1.324712         3.033172         1.946084
