19
Iteration:  2892charge 0 multiplicity 1
 O         1.832944         2.523403         1.676298
 C         0.599939         1.764869         1.872038
 C         0.350596         1.078841         3.268057
 C        -0.408801         0.111518         2.258212
 C        -1.288713         0.951339         1.319292
 C        -0.475289         0.327536         0.110219
 C         0.610773         0.434020         1.126063
 O         1.870968        -0.071597         0.717953
 C        -0.844067         2.322849         1.519615
 H         1.710578         3.480748         1.869462
 H         1.328411         0.631828         3.425822
 H        -0.052233         1.600138         4.178347
 H        -0.667014        -0.856327         2.607283
 H        -2.449570         0.800888         1.498171
 H        -0.676022        -0.769421        -0.001186
 H        -0.534155         0.824315        -0.916176
 H         2.466191         0.708763         0.722951
 H        -1.027484         3.063131         0.710658
 H        -1.304463         2.775509         2.422113
