19
Iteration:  2721charge 0 multiplicity 1
 O         1.811641         2.654984         1.636281
 C         0.608283         1.843660         1.869165
 C         0.335163         0.968666         3.232622
 C        -0.344076         0.088505         2.201881
 C        -1.394889         0.852605         1.304840
 C        -0.540432         0.323215         0.098160
 C         0.636859         0.452715         1.088333
 O         1.934821         0.072752         0.877707
 C        -0.791492         2.362853         1.552316
 H         2.391307         2.067591         1.131425
 H         1.202917         0.604301         3.785755
 H        -0.338413         1.481661         3.958513
 H        -0.728505        -1.024263         2.254387
 H        -2.456584         0.671949         1.512251
 H        -0.900026        -0.728414        -0.140272
 H        -0.420732         0.821399        -0.939228
 H         1.839802        -0.829222         1.282200
 H        -0.895579         3.126759         0.785870
 H        -1.158002         2.864610         2.489465
