19
Iteration:  4312
 O         1.726097         2.755494         1.495930
 C         0.623039         1.792869         1.744758
 C         0.374130         1.093191         3.220327
 C        -0.331856         0.032892         2.322501
 C        -1.323784         0.881401         1.273332
 C        -0.531726         0.376376         0.084387
 C         0.631185         0.349799         1.170376
 O         1.876194        -0.231103         0.986392
 C        -0.774845         2.370999         1.535704
 H         1.950390         3.267284         2.312436
 H         1.249423         0.549104         3.718467
 H        -0.318786         1.680290         3.854511
 H        -0.541151        -0.946040         2.674655
 H        -2.454998         0.781318         1.327274
 H        -0.800989        -0.581318        -0.375438
 H        -0.268037         1.104880        -0.812407
 H         2.344006         0.549985         0.772904
 H        -0.971819         3.065282         0.606766
 H        -1.230973         2.750124         2.495391
