19
Iteration:  4074
 O         1.764712         2.751754         1.693877
 C         0.666183         1.920089         1.899682
 C         0.396687         1.071528         3.236781
 C        -0.377600         0.139059         2.309644
 C        -1.367644         0.841778         1.296446
 C        -0.567654         0.293374         0.096321
 C         0.642939         0.503345         1.038014
 O         1.834696        -0.250926         0.844051
 C        -0.747505         2.257270         1.384095
 H         1.979366         3.340923         2.455806
 H         1.385362         0.513255         3.469592
 H        -0.043770         1.475753         4.132188
 H        -0.544918        -0.860437         2.566558
 H        -2.474847         0.705075         1.511596
 H        -0.738949        -0.741294         0.330031
 H        -0.743635         0.816063        -0.890717
 H         2.558412         0.315436         0.765238
 H        -0.747855         2.728262         0.410810
 H        -1.379230         2.765728         2.018039
