19
Iteration:  1067charge 0 multiplicity 1
 O         1.703006         2.769394         1.858121
 C         0.666159         1.827669         1.995460
 C         0.385478         0.958943         3.243391
 C        -0.292136        -0.002614         2.255402
 C        -1.301539         0.937602         1.317025
 C        -0.577174         0.545803         0.061950
 C         0.649397         0.384824         1.000190
 O         1.802271        -0.282950         0.602673
 C        -0.714939         2.333621         1.610725
 H         1.378033         3.274533         1.084878
 H         1.316206         0.506064         3.536060
 H        -0.247361         1.339408         3.964704
 H        -0.674906        -1.052479         2.479579
 H        -2.365328         0.876297         1.405971
 H        -0.685912        -0.387852        -0.476881
 H        -0.456977         1.316961        -0.679748
 H         2.643604         0.188260         0.900967
 H        -0.944985         2.855251         0.690453
 H        -1.242096         2.854369         2.428308
