19
Iteration:  3753
 O         1.697496         2.758830         1.789671
 C         0.641646         1.801944         1.812387
 C         0.410892         1.099275         3.106261
 C        -0.353409         0.086229         2.238290
 C        -1.342416         0.959544         1.353771
 C        -0.641924         0.321691         0.163876
 C         0.654144         0.414486         1.061926
 O         1.957326        -0.194854         0.877937
 C        -0.815300         2.338273         1.414179
 H         2.451444         2.226102         2.055445
 H         1.205897         0.479162         3.459415
 H        -0.179644         1.544055         3.940968
 H        -0.481275        -1.011368         2.538701
 H        -2.362910         0.851027         1.661413
 H        -0.935646        -0.696301         0.111005
 H        -0.729881         0.656502        -0.807553
 H         2.604995         0.341556         0.396711
 H        -0.789640         2.886516         0.476083
 H        -1.319426         2.838728         2.192746
