19
Iteration:  1363charge 0 multiplicity 1
 O         1.839997         2.631088         1.846350
 C         0.609901         1.789061         1.889791
 C         0.434737         1.061244         3.193567
 C        -0.286705         0.048784         2.224569
 C        -1.378232         0.857642         1.323114
 C        -0.569427         0.559915         0.042204
 C         0.619667         0.449811         1.035109
 O         1.871880        -0.132877         0.739328
 C        -0.873412         2.313328         1.590662
 H         1.710855         3.375496         1.248207
 H         1.410108         0.618138         3.546574
 H        -0.108716         1.582253         4.022119
 H        -0.537946        -1.066796         2.428351
 H        -2.381900         0.449348         1.260695
 H        -0.758606        -0.331557        -0.506530
 H        -0.414330         1.190893        -0.769028
 H         1.820944        -1.085190         1.097512
 H        -0.915332         2.957131         0.727999
 H        -1.301326         2.774944         2.502059
