19
Iteration:  2981
 O         1.744930         2.767666         1.804113
 C         0.609660         1.817685         1.784153
 C         0.501440         1.072099         3.115776
 C        -0.353475         0.119064         2.295383
 C        -1.312909         0.882609         1.263112
 C        -0.465798         0.409577         0.088432
 C         0.600366         0.378071         1.082260
 O         1.757757        -0.257462         0.784832
 C        -0.788094         2.299189         1.619679
 H         1.762387         3.275577         0.946922
 H         1.414975         0.510418         3.399752
 H         0.126011         1.590734         4.016696
 H        -0.684803        -0.881936         2.699588
 H        -2.447855         0.609166         1.320775
 H        -0.780049        -0.463120        -0.433091
 H        -0.518054         1.239432        -0.643561
 H         2.415485        -0.070527         1.559740
 H        -0.852772         2.984524         0.776376
 H        -1.387286         2.689402         2.461337
