19
Iteration:  4885charge 0 multiplicity 1
 O         1.756883         2.772362         1.689399
 C         0.664053         1.867483         1.800451
 C         0.386803         1.148325         3.158596
 C        -0.358543         0.075771         2.353668
 C        -1.332305         0.827091         1.313962
 C        -0.573680         0.310816         0.021596
 C         0.648857         0.380250         1.091898
 O         1.899531        -0.231591         0.962235
 C        -0.817491         2.307468         1.496119
 H         1.788236         2.867652         0.714691
 H         1.288563         0.835913         3.580704
 H        -0.123095         1.704552         3.915584
 H        -0.622826        -0.874696         2.753693
 H        -2.413310         0.598881         1.217417
 H        -1.012281        -0.592870        -0.311034
 H        -0.446414         1.034377        -0.810117
 H         2.440102         0.443889         1.339034
 H        -0.990659         2.782734         0.524717
 H        -1.233048         2.926004         2.333799
