19
Iteration:  3411charge 0 multiplicity 1
 O         1.857707         2.637633         1.757387
 C         0.650382         1.751625         1.825464
 C         0.381021         1.121014         3.226995
 C        -0.417075         0.096201         2.283922
 C        -1.400060         0.816395         1.354618
 C        -0.539600         0.421686         0.114027
 C         0.626153         0.395727         1.014968
 O         1.854896        -0.140192         0.782734
 C        -0.812415         2.332901         1.569157
 H         2.052347         2.955065         0.862648
 H         1.204532         0.763320         3.868745
 H        -0.222908         1.794270         3.751645
 H        -0.407621        -0.987444         2.411819
 H        -2.549186         0.651933         1.356511
 H        -0.736902        -0.632527        -0.146597
 H        -0.473658         0.951986        -0.808938
 H         2.433284         0.673170         0.832065
 H        -0.821172         3.018494         0.692910
 H        -1.154722         3.007348         2.386240
