19
Iteration:  1757
 O         1.692481         2.760543         1.620148
 C         0.680258         1.760169         1.855468
 C         0.425270         0.895124         3.135284
 C        -0.392582         0.043332         2.158421
 C        -1.374138         0.960738         1.325923
 C        -0.555191         0.494297         0.112661
 C         0.630792         0.415522         1.066059
 O         1.911747        -0.020354         0.821628
 C        -0.772833         2.290594         1.749679
 H         2.403541         2.407228         2.189247
 H         1.288037         0.272710         3.523356
 H        -0.088385         1.407034         3.935638
 H        -0.562364        -1.072916         2.262320
 H        -2.437333         0.714839         1.300964
 H        -0.901830        -0.513063        -0.162274
 H        -0.502435         1.171895        -0.815138
 H         1.893876        -0.967462         0.691859
 H        -0.761944         3.053658         0.950919
 H        -1.112103         2.771374         2.720298
