19
Iteration:  4895
 O         1.713086         2.686025         1.621678
 C         0.601460         1.797497         1.793470
 C         0.384771         1.136301         3.238831
 C        -0.290532         0.090885         2.308287
 C        -1.311157         0.876413         1.301916
 C        -0.548947         0.380052         0.069408
 C         0.610793         0.343275         1.153924
 O         1.902600        -0.163766         0.960642
 C        -0.800596         2.288414         1.441218
 H         1.648262         3.267853         0.835263
 H         1.242624         0.680659         3.617074
 H        -0.217121         1.726281         3.831123
 H        -0.751055        -0.847615         2.686850
 H        -2.378228         0.659833         1.575862
 H        -0.759042        -0.625520        -0.263442
 H        -0.497673         1.155430        -0.805866
 H         2.640012         0.286396         1.298831
 H        -0.689069         2.839371         0.512003
 H        -1.251764         2.929625         2.227806
