19
Iteration:  2826
 O         1.604774         2.794218         1.645372
 C         0.609514         1.827281         1.889985
 C         0.436933         1.058978         3.151251
 C        -0.338289         0.023409         2.284158
 C        -1.331089         0.926452         1.258722
 C        -0.510842         0.419042         0.075732
 C         0.640885         0.349206         1.122844
 O         1.857629        -0.224413         0.940957
 C        -0.747229         2.344227         1.554121
 H         2.470994         2.434576         1.900383
 H         1.388747         0.548127         3.180212
 H         0.047755         1.618198         4.023062
 H        -0.649024        -0.980720         2.434062
 H        -2.481421         0.848004         1.379640
 H        -0.642449        -0.633803        -0.203873
 H        -0.298738         1.090671        -0.732067
 H         2.163764         0.019086        -0.028104
 H        -0.680023         3.110228         0.743120
 H        -1.259041         2.837139         2.400795
