19
Iteration:  1594charge 0 multiplicity 1
 O         1.786872         2.638865         1.767582
 C         0.690168         1.809038         1.897272
 C         0.399696         0.974443         3.189428
 C        -0.422379         0.056898         2.234374
 C        -1.414447         0.930686         1.343074
 C        -0.491148         0.431821         0.039556
 C         0.613694         0.489206         1.096887
 O         1.876158        -0.035556         0.690615
 C        -0.735023         2.268599         1.632055
 H         1.548037         3.536212         2.059048
 H         1.230691         0.391408         3.567056
 H        -0.221663         1.355763         4.013751
 H        -0.837604        -0.928955         2.459938
 H        -2.459965         0.830030         1.374185
 H        -0.488672        -0.586763        -0.342124
 H        -0.338243         0.990592        -0.933451
 H         1.772225        -0.978516         0.553789
 H        -0.815882         2.824444         0.741578
 H        -1.091130         2.781322         2.495374
