19
Iteration:   911charge 0 multiplicity 1
 O         1.676114         2.750997         1.745256
 C         0.605924         1.865998         1.944662
 C         0.474125         0.918815         3.146411
 C        -0.280317         0.000325         2.228460
 C        -1.298860         0.858189         1.357504
 C        -0.500103         0.625787         0.017111
 C         0.620099         0.447983         1.000360
 O         1.798154        -0.201037         0.724036
 C        -0.789583         2.308321         1.641739
 H         2.317324         2.595776         2.460383
 H         1.474127         0.542996         3.304218
 H        -0.072072         1.272234         4.054748
 H        -0.424091        -1.055848         2.413593
 H        -2.447348         0.626669         1.264317
 H        -0.903773        -0.246933        -0.560682
 H        -0.691128         1.480261        -0.744841
 H         1.963292        -0.791162         1.409264
 H        -0.895338         3.081831         0.814029
 H        -1.299608         2.785252         2.546736
