19
Iteration:   878charge 0 multiplicity 1
 O         1.628855         2.742643         1.660118
 C         0.690916         1.782364         1.951477
 C         0.453005         0.867960         3.191504
 C        -0.424295         0.044313         2.181030
 C        -1.346731         0.963641         1.277502
 C        -0.504973         0.583117         0.023404
 C         0.641311         0.414654         1.018490
 O         1.913185        -0.065916         0.866942
 C        -0.740964         2.268291         1.763625
 H         2.033749         2.403671         0.845699
 H         1.388147         0.410357         3.482080
 H        -0.022134         1.259358         4.129212
 H        -0.588046        -1.026244         2.353574
 H        -2.534353         0.847225         1.109714
 H        -1.004426        -0.396847        -0.237567
 H        -0.479201         1.325170        -0.866970
 H         1.916063        -0.992956         0.573838
 H        -0.737605         3.176127         1.069251
 H        -1.275691         2.477428         2.742477
