19
Iteration:  1496
 O         1.592613         2.744316         1.667466
 C         0.580534         1.760235         1.909057
 C         0.525701         0.879533         3.130918
 C        -0.431510         0.024434         2.239589
 C        -1.324154         0.972116         1.281221
 C        -0.389203         0.612561         0.087359
 C         0.670437         0.399560         1.154228
 O         1.848637        -0.218466         0.932861
 C        -0.782694         2.328532         1.611579
 H         1.984226         2.737540         0.782901
 H         1.548811         0.649790         3.297513
 H         0.161503         1.410023         4.048610
 H        -0.893058        -0.955931         2.406404
 H        -2.331283         0.787898         1.317217
 H        -0.654945        -0.301519        -0.413909
 H        -0.172411         1.419965        -0.663536
 H         1.781335        -0.232083        -0.073527
 H        -0.910363         2.980998         0.717721
 H        -1.180733         2.754409         2.536470
