19
Iteration:   868charge 0 multiplicity 1
 O         1.687891         2.722960         1.667831
 C         0.637372         1.748471         1.923217
 C         0.429852         0.837129         3.194683
 C        -0.378499        -0.012017         2.187042
 C        -1.287442         0.939443         1.269239
 C        -0.607962         0.547971         0.008517
 C         0.584528         0.489642         1.042731
 O         1.943663        -0.052959         0.908669
 C        -0.722630         2.339116         1.740677
 H         1.917419         2.649651         0.732598
 H         1.183596         0.194528         3.586070
 H        -0.129880         1.346129         3.992275
 H        -0.685144        -1.025791         2.438228
 H        -2.445858         0.884326         1.505646
 H        -0.660824        -0.490284        -0.365962
 H        -0.497462         1.227134        -0.864859
 H         1.928471        -0.668261         0.206126
 H        -0.781674         3.173342         0.985137
 H        -1.205913         2.711434         2.688925
