19
Iteration:  1426charge 0 multiplicity 1
 O         1.772376         2.665474         1.948429
 C         0.679574         1.793789         1.944150
 C         0.497478         1.015784         3.155062
 C        -0.411173         0.064286         2.327736
 C        -1.309204         0.881900         1.319649
 C        -0.604178         0.378892         0.022214
 C         0.555429         0.410114         1.053560
 O         1.882359        -0.039065         0.709703
 C        -0.737037         2.341954         1.397115
 H         1.397165         3.555362         2.004389
 H         1.507767         0.520592         3.394182
 H         0.254219         1.440201         4.137279
 H        -0.874713        -0.928953         2.536810
 H        -2.442448         0.754451         1.546333
 H        -0.873748        -0.761694        -0.146190
 H        -0.714593         1.037567        -0.986512
 H         1.602946        -0.867757         0.256389
 H        -0.511079         2.945066         0.528600
 H        -1.277456         3.035499         2.084271
