19
Iteration:   896
 O         1.628337         2.763935         1.681606
 C         0.620841         1.784852         1.882142
 C         0.524616         0.884045         3.161765
 C        -0.356991         0.015440         2.190251
 C        -1.349837         0.922081         1.286104
 C        -0.471309         0.612109         0.016255
 C         0.601497         0.461230         1.078219
 O         1.879209        -0.158250         0.765330
 C        -0.856927         2.345699         1.749070
 H         2.490772         2.303795         1.739421
 H         1.421246         0.266652         3.480500
 H         0.198773         1.333354         4.157986
 H        -0.726712        -1.035462         2.438703
 H        -2.436431         0.734831         1.420261
 H        -0.539005        -0.391402        -0.455309
 H        -0.112436         1.459616        -0.642245
 H         1.869619        -1.033488         1.191293
 H        -0.976354         3.092783         0.933709
 H        -1.273593         2.675403         2.723910
