19
Iteration:   532
 O         1.732603         2.574625         1.739886
 C         0.624225         1.768387         1.936202
 C         0.453747         0.947803         3.188583
 C        -0.416458        -0.065447         2.276384
 C        -1.359300         0.937918         1.348309
 C        -0.560210         0.507094         0.109145
 C         0.660195         0.389365         1.066796
 O         1.910887        -0.041507         0.610337
 C        -0.812548         2.418272         1.577542
 H         1.875440         3.181919         2.476613
 H         1.345622         0.415276         3.483775
 H        -0.042625         1.413323         4.086927
 H        -0.764642        -1.186259         2.473524
 H        -2.336121         0.777432         1.494232
 H        -0.908980        -0.475597        -0.297823
 H        -0.542443         1.205546        -0.734682
 H         2.643838         0.641435         0.762876
 H        -0.866508         3.012373         0.707933
 H        -1.189000         3.027020         2.411836
