19
Iteration:  1167
 O         1.776749         2.644862         1.564072
 C         0.657589         1.769109         1.937683
 C         0.405073         0.965952         3.228365
 C        -0.301506         0.026088         2.142029
 C        -1.368157         0.933707         1.370590
 C        -0.475134         0.600824        -0.087545
 C         0.659225         0.484090         1.049543
 O         1.828289        -0.194136         0.832495
 C        -0.882863         2.233457         1.812680
 H         1.457892         3.441345         1.098297
 H         1.302195         0.383004         3.659986
 H        -0.103402         1.377320         4.076738
 H        -0.653067        -1.125919         2.472936
 H        -2.525235         0.808192         1.278735
 H        -0.880288        -0.323116        -0.573217
 H        -0.419009         1.490512        -0.684726
 H         2.568750         0.319755         1.363689
 H        -1.017278         3.090692         1.155929
 H        -1.151743         2.549736         2.872414
