19
Iteration:  3950charge 0 multiplicity 1
 O         1.787209         2.570438         1.612501
 C         0.626480         1.781368         1.844409
 C         0.383333         1.093304         3.118598
 C        -0.366116         0.079214         2.290208
 C        -1.306596         0.891490         1.356819
 C        -0.583630         0.321535         0.117388
 C         0.596296         0.417116         1.104812
 O         1.867844        -0.041434         0.883468
 C        -0.783371         2.331101         1.464025
 H         1.850808         3.258311         2.304705
 H         1.250901         0.590359         3.489260
 H        -0.085126         1.654493         3.983206
 H        -0.773168        -0.998589         2.541247
 H        -2.363168         0.657293         1.486383
 H        -0.684199        -0.805928        -0.037481
 H        -0.473868         1.002244        -0.861522
 H         2.496292         0.585917         1.261857
 H        -0.707697         3.051505         0.621420
 H        -1.202607         2.942335         2.225721
