19
Iteration:  1444charge 0 multiplicity 1
 O         1.778658         2.660684         1.835686
 C         0.634350         1.837703         1.835621
 C         0.430712         0.967990         3.100274
 C        -0.297668         0.055447         2.187876
 C        -1.381525         0.922280         1.347512
 C        -0.580942         0.453064         0.091849
 C         0.631629         0.416055         1.008407
 O         1.862200        -0.137425         0.888377
 C        -0.790552         2.331384         1.577798
 H         1.699821         3.614242         1.680763
 H         1.353351         0.497749         3.437260
 H        -0.017612         1.442787         3.983081
 H        -0.452132        -0.973140         2.396715
 H        -2.527842         0.895052         1.288046
 H        -0.718012        -0.600309        -0.162967
 H        -0.398554         1.125144        -0.719499
 H         1.872670        -0.726535         0.125558
 H        -1.061569         3.014192         0.682412
 H        -1.165262         2.920184         2.433555
