19
Iteration:  4842
 O         1.669677         2.833404         1.785330
 C         0.578350         1.924657         1.872753
 C         0.452957         1.157261         3.216520
 C        -0.301774         0.109119         2.326728
 C        -1.304945         0.875332         1.327285
 C        -0.518323         0.245655         0.088782
 C         0.622604         0.346457         1.066549
 O         1.831614        -0.326098         0.826817
 C        -0.749982         2.335483         1.371047
 H         1.627157         3.082299         0.832943
 H         1.347975         0.727266         3.593212
 H        -0.132883         1.684372         4.027724
 H        -0.433163        -0.909223         2.662848
 H        -2.424997         0.826541         1.366421
 H        -0.706539        -0.782932         0.072298
 H        -0.551317         0.815468        -0.808220
 H         2.497659         0.234144         1.215285
 H        -0.628878         2.778432         0.379164
 H        -1.378202         2.886586         2.145901
