19
Iteration:  1048
 O         1.649001         2.720527         1.727280
 C         0.669743         1.731704         1.869944
 C         0.535196         0.873601         3.192114
 C        -0.410071         0.053708         2.211370
 C        -1.372911         0.923957         1.306385
 C        -0.409689         0.598641         0.029625
 C         0.609468         0.426965         1.102116
 O         1.792037        -0.167776         0.740068
 C        -0.763114         2.322623         1.724547
 H         1.469966         3.200136         0.894827
 H         1.462790         0.172660         3.362511
 H         0.180751         1.402693         4.128104
 H        -0.840438        -1.069821         2.449194
 H        -2.526585         0.743751         1.178213
 H        -0.840677        -0.338756        -0.412073
 H        -0.212075         1.441864        -0.632248
 H         2.500200         0.092611         1.350446
 H        -0.720379         2.992917         0.821873
 H        -1.250446         2.731447         2.661894
