19
Iteration:   445charge 0 multiplicity 1
 O         1.619254         2.836232         1.681069
 C         0.683792         1.803110         1.989289
 C         0.480401         0.928426         3.190263
 C        -0.340971        -0.005433         2.157571
 C        -1.383003         0.916039         1.262336
 C        -0.464284         0.558944         0.017253
 C         0.623574         0.499373         1.071900
 O         1.782973        -0.202366         0.785779
 C        -0.737901         2.238306         1.742146
 H         2.435297         2.732912         2.182734
 H         1.351220         0.374576         3.456567
 H        -0.025050         1.240395         4.137068
 H        -0.399707        -1.134175         2.545306
 H        -2.363737         0.710103         1.161712
 H        -0.723242        -0.326678        -0.492953
 H        -0.436075         1.236822        -0.746871
 H         1.921121        -0.435025        -0.090173
 H        -0.769500         3.015648         1.031646
 H        -1.186740         2.577176         2.689329
