19
Iteration:  3271charge 0 multiplicity 1
 O         1.749414         2.714590         1.802133
 C         0.618004         1.835436         1.853937
 C         0.501887         1.016499         3.120742
 C        -0.411823         0.095795         2.312125
 C        -1.361977         0.906379         1.287480
 C        -0.556907         0.328920         0.114990
 C         0.615379         0.324736         1.101778
 O         1.850449        -0.177901         0.836124
 C        -0.754695         2.369038         1.500758
 H         1.623865         3.368827         1.083847
 H         1.508979         0.502580         3.225258
 H         0.216168         1.501766         4.124626
 H        -0.789820        -0.863825         2.640091
 H        -2.539187         0.826222         1.261826
 H        -0.898402        -0.637354        -0.416134
 H        -0.407263         1.038157        -0.798177
 H         2.518041         0.576699         0.915495
 H        -0.844424         2.885688         0.549857
 H        -1.198402         3.073875         2.222548
