19
Iteration:  2029
 O         1.850841         2.608417         1.981447
 C         0.628863         1.851847         1.901989
 C         0.385539         1.038554         3.180025
 C        -0.357401         0.066829         2.280469
 C        -1.332348         0.903086         1.399105
 C        -0.597863         0.308210         0.062289
 C         0.576171         0.362970         0.997395
 O         1.871957        -0.040961         0.628308
 C        -0.783913         2.362021         1.474368
 H         1.845196         3.334132         1.320306
 H         1.410889         0.663945         3.513511
 H        -0.212369         1.496368         3.952261
 H        -0.722823        -0.988159         2.505849
 H        -2.387104         0.714872         1.332902
 H        -0.860486        -0.787766        -0.279659
 H        -0.621303         0.909711        -0.913890
 H         2.414394         0.622448         1.079597
 H        -0.784870         2.702249         0.455104
 H        -1.284508         2.917301         2.250027
