19
Iteration:  2087
 O         1.625317         2.780069         1.728564
 C         0.666795         1.789538         1.836232
 C         0.510295         0.888400         3.190000
 C        -0.260256         0.048622         2.229629
 C        -1.356867         0.891277         1.323063
 C        -0.522004         0.666187         0.014772
 C         0.638641         0.403595         1.047874
 O         1.825246        -0.311713         1.016088
 C        -0.799360         2.292434         1.546472
 H         1.353116         3.279143         0.940481
 H         1.442753         0.460495         3.467481
 H         0.130664         1.251210         4.145545
 H        -0.650856        -0.899686         2.393387
 H        -2.499203         0.649940         1.204548
 H        -0.604507        -0.087553        -0.736169
 H        -0.386501         1.688145        -0.418787
 H         2.187558        -0.107780         0.110773
 H        -0.886929         3.070005         0.829991
 H        -1.236099         2.823058         2.419635
