19
Iteration:  3201
 O         1.685267         2.584877         1.754309
 C         0.601053         1.801192         1.891261
 C         0.465379         1.115328         3.202293
 C        -0.379565         0.149712         2.290233
 C        -1.356048         0.864722         1.283157
 C        -0.501326         0.399386         0.079605
 C         0.582403         0.388849         1.140335
 O         1.924968        -0.219701         0.779372
 C        -0.779381         2.400939         1.563156
 H         1.485025         3.255298         1.074233
 H         1.391280         0.556825         3.352741
 H         0.067728         1.555868         4.054967
 H        -0.628043        -0.877226         2.649550
 H        -2.364194         0.691638         1.442068
 H        -0.658112        -0.604208        -0.291270
 H        -0.280427         1.097692        -0.834719
 H         2.341390         0.528098         0.414551
 H        -0.747285         2.818489         0.535650
 H        -1.375681         3.073190         2.185942
