19
Iteration:  2030charge 0 multiplicity 1
 O         1.851735         2.607535         1.981270
 C         0.627645         1.848245         1.894670
 C         0.386332         1.032586         3.187044
 C        -0.359558         0.072889         2.281789
 C        -1.325682         0.900883         1.392780
 C        -0.596712         0.307858         0.056678
 C         0.578624         0.362595         0.997790
 O         1.874138        -0.042756         0.632528
 C        -0.789054         2.369580         1.477684
 H         1.839672         3.322715         1.311124
 H         1.396982         0.673929         3.534367
 H        -0.198275         1.498798         3.958919
 H        -0.689710        -0.981531         2.486000
 H        -2.424884         0.707183         1.348537
 H        -0.879273        -0.771117        -0.248894
 H        -0.617358         0.873936        -0.932171
 H         2.387049         0.634336         1.030643
 H        -0.797115         2.736250         0.470691
 H        -1.299237         2.919750         2.278481
