19
Iteration:   434charge 0 multiplicity 1
 O         1.575434         2.887445         1.627321
 C         0.761507         1.785774         1.973525
 C         0.498289         0.824011         3.225538
 C        -0.380025         0.072920         2.131721
 C        -1.315505         0.929102         1.239311
 C        -0.458344         0.579561        -0.018706
 C         0.624405         0.476246         1.047342
 O         1.801439        -0.177276         0.865792
 C        -0.785552         2.203812         1.782157
 H         2.468390         2.676067         1.929779
 H         1.260182         0.120815         3.456512
 H         0.147600         1.437674         4.078498
 H        -0.652988        -1.089918         2.293494
 H        -2.333870         0.900536         1.223225
 H        -0.791919        -0.400105        -0.228601
 H        -0.277981         1.244783        -0.767608
 H         1.613936        -0.704443         0.036743
 H        -0.971899         3.089456         1.252888
 H        -1.246439         2.308121         2.776757
