19
Iteration:   335
 O         1.689174         2.653243         1.983850
 C         0.642192         1.770024         1.915993
 C         0.296936         0.966744         3.260113
 C        -0.357129        -0.037193         2.294522
 C        -1.346666         0.944964         1.356329
 C        -0.589793         0.449915         0.088874
 C         0.626182         0.393273         1.008872
 O         1.907815         0.074466         0.428237
 C        -0.671450         2.360839         1.558386
 H         2.283109         2.363097         1.266192
 H         1.166553         0.506039         3.764272
 H        -0.233784         1.351567         4.176887
 H        -0.477406        -1.176504         2.717907
 H        -2.419286         0.770458         1.469573
 H        -0.676707        -0.596089        -0.304674
 H        -0.448095         1.084329        -0.762431
 H         2.410050        -0.669808         0.948341
 H        -0.526276         2.902391         0.624364
 H        -1.252013         3.041507         2.219590
