19
Iteration:   151charge 0 multiplicity 1
 O         1.558789         2.820852         1.780018
 C         0.668955         1.742520         1.921235
 C         0.378098         0.837646         3.211035
 C        -0.329453         0.012137         2.152311
 C        -1.344541         0.948172         1.371132
 C        -0.531335         0.573743         0.047793
 C         0.696090         0.457671         0.974811
 O         1.865061        -0.212688         0.795033
 C        -0.678972         2.320411         1.621178
 H         2.422098         2.637185         1.417668
 H         1.189285         0.235673         3.677908
 H        -0.216302         1.285261         4.035148
 H        -0.744618        -0.981467         2.258500
 H        -2.516302         0.832167         1.390766
 H        -0.742586        -0.526063        -0.238607
 H        -0.571557         1.231137        -0.843518
 H         2.578268         0.389534         0.615079
 H        -0.791840         3.045551         0.826908
 H        -1.113130         2.804429         2.581107
