19
Iteration:  4700
 O         1.622380         2.905304         1.665835
 C         0.687017         1.867119         1.842146
 C         0.424924         1.177319         3.233265
 C        -0.302188         0.143526         2.344501
 C        -1.296643         0.810984         1.257314
 C        -0.468768         0.276376         0.047506
 C         0.704303         0.477019         1.129519
 O         1.768832        -0.364560         0.966730
 C        -0.835593         2.253200         1.369576
 H         2.542885         2.591835         1.773254
 H         1.269966         0.664255         3.751956
 H        -0.117066         1.846759         4.049660
 H        -0.620753        -0.842811         2.751003
 H        -2.449062         0.737869         1.436008
 H        -0.752224        -0.777703        -0.016968
 H        -0.534171         0.930186        -0.802684
 H         2.246545        -0.110493         0.136173
 H        -0.856770         2.809288         0.417999
 H        -1.363920         2.825000         2.213276
