19
Iteration:  1304charge 0 multiplicity 1
 O         1.622102         2.785333         1.589596
 C         0.667778         1.786843         1.910809
 C         0.348778         0.872809         3.182608
 C        -0.368636         0.036310         2.177073
 C        -1.298566         0.961820         1.340340
 C        -0.589216         0.529237         0.047882
 C         0.657023         0.482116         1.052171
 O         1.938203        -0.164088         0.860820
 C        -0.712280         2.277039         1.718437
 H         2.347961         2.556399         2.207864
 H         1.261091         0.402328         3.590907
 H        -0.269267         1.304376         4.010727
 H        -0.618887        -0.967623         2.276034
 H        -2.426475         0.835737         1.288848
 H        -0.882596        -0.533023        -0.095409
 H        -0.334325         1.305902        -0.722840
 H         1.968714        -0.545461         0.022889
 H        -0.747559         3.059998         0.938836
 H        -1.136735         2.685212         2.634460
