19
Iteration:   811charge 0 multiplicity 1
 O         1.826415         2.712434         2.051333
 C         0.652362         1.828864         1.896034
 C         0.453835         1.074408         3.192739
 C        -0.333765         0.090775         2.240426
 C        -1.320436         0.872608         1.325277
 C        -0.605224         0.362456         0.064731
 C         0.562740         0.391154         0.949050
 O         1.779292        -0.198716         0.560047
 C        -0.748482         2.310500         1.569176
 H         1.697133         3.531621         1.519149
 H         1.351769         0.598438         3.630247
 H        -0.219129         1.587257         3.950456
 H        -0.510901        -0.991785         2.487568
 H        -2.544554         0.780555         1.554976
 H        -0.882042        -0.708501        -0.149890
 H        -0.373683         0.957338        -0.909199
 H         2.499085         0.500623         0.678343
 H        -0.870967         2.958965         0.608433
 H        -1.182942         2.779737         2.513700
