19
Iteration:   456charge 0 multiplicity 1
 O         1.632641         2.789248         1.756059
 C         0.628885         1.809167         1.909748
 C         0.462895         0.913572         3.194983
 C        -0.286001        -0.003005         2.234893
 C        -1.346424         0.856867         1.310078
 C        -0.517934         0.590416         0.032390
 C         0.630776         0.449378         1.025873
 O         1.845657        -0.229261         0.751402
 C        -0.793828         2.346118         1.680794
 H         2.385952         2.552525         2.347717
 H         1.408168         0.518496         3.495452
 H        -0.095363         1.386850         4.043308
 H        -0.580242        -1.133087         2.290028
 H        -2.352660         0.781513         1.405852
 H        -0.613702        -0.384230        -0.348198
 H        -0.469660         1.360325        -0.644166
 H         1.920426        -0.080998        -0.209895
 H        -0.797859         2.971682         0.826919
 H        -1.217098         2.908434         2.523130
