19
Iteration:  3526charge 0 multiplicity 1
 O         1.748589         2.851294         1.686643
 C         0.666860         1.800647         1.876690
 C         0.538986         0.999300         3.202427
 C        -0.333725         0.065156         2.179366
 C        -1.358141         0.899710         1.299046
 C        -0.528175         0.470509        -0.006357
 C         0.599433         0.400552         1.051801
 O         1.817609        -0.323373         1.014365
 C        -0.870938         2.311039         1.616885
 H         1.600795         3.029025         0.745690
 H         1.372787         0.471072         3.505631
 H         0.003292         1.443225         4.059607
 H        -0.466799        -0.933882         2.604057
 H        -2.354796         0.707773         1.514695
 H        -0.868510        -0.399537        -0.588000
 H        -0.563175         1.347335        -0.759908
 H         2.400673         0.020999         0.394358
 H        -0.825609         3.021439         0.786528
 H        -1.342497         2.868926         2.407881
