19
Iteration:  4315
 O         1.724462         2.785458         1.516315
 C         0.632605         1.790053         1.748722
 C         0.386626         1.126655         3.219382
 C        -0.354074         0.056407         2.335917
 C        -1.335703         0.879278         1.272311
 C        -0.520684         0.371171         0.079258
 C         0.611171         0.333328         1.144324
 O         1.871624        -0.244410         0.982982
 C        -0.746443         2.330220         1.540049
 H         1.868785         3.292725         2.325488
 H         1.242412         0.584566         3.642363
 H        -0.292165         1.624355         3.862146
 H        -0.555966        -1.025608         2.718044
 H        -2.486081         0.815506         1.317568
 H        -0.794040        -0.544027        -0.499886
 H        -0.384218         1.012994        -0.818224
 H         2.420238         0.603494         0.739362
 H        -0.860268         3.004696         0.690671
 H        -1.190780         2.711886         2.463650
