19
Iteration:  3013
 O         1.717022         2.729568         1.674749
 C         0.663991         1.834199         1.871021
 C         0.326769         1.002232         3.289807
 C        -0.296142         0.073168         2.200624
 C        -1.314193         0.958871         1.366071
 C        -0.532479         0.419382         0.187746
 C         0.705208         0.357902         1.110320
 O         1.841166        -0.265174         0.725967
 C        -0.746612         2.338375         1.525339
 H         1.406677         3.373261         1.040070
 H         1.161323         0.569623         3.785611
 H        -0.452803         1.528396         3.864888
 H        -0.798594        -0.925907         2.091334
 H        -2.461520         0.798385         1.592954
 H        -0.822775        -0.568820        -0.178771
 H        -0.667838         1.238873        -0.607501
 H         2.543577         0.240391         1.155261
 H        -0.604313         2.863403         0.550130
 H        -1.319610         3.023690         2.198147
