19
Iteration:  4909charge 0 multiplicity 1
 O         1.681087         2.564427         1.540922
 C         0.623777         1.827755         1.881382
 C         0.362272         1.111223         3.217100
 C        -0.382199         0.079121         2.318199
 C        -1.365771         0.888460         1.359955
 C        -0.443789         0.361997         0.152401
 C         0.667720         0.440782         1.128001
 O         1.900168        -0.156428         0.914775
 C        -0.737928         2.329654         1.395949
 H         1.207168         3.379682         1.288547
 H         1.313280         0.776867         3.631575
 H        -0.254335         1.620165         4.014606
 H        -0.522988        -0.903940         2.509314
 H        -2.437180         0.811791         1.286208
 H        -0.701026        -0.649084        -0.105221
 H        -0.357929         1.004622        -0.668513
 H         2.395022         0.669899         1.258502
 H        -0.806443         2.743144         0.356046
 H        -1.234992         2.929581         2.215393
