19
Iteration:  3523
 O         1.725245         2.827347         1.692175
 C         0.665806         1.819804         1.885684
 C         0.549071         1.007245         3.191818
 C        -0.340072         0.049523         2.208599
 C        -1.316150         0.887974         1.325634
 C        -0.519480         0.505933        -0.013146
 C         0.607496         0.406049         1.071799
 O         1.802498        -0.328253         0.997267
 C        -0.890950         2.318413         1.594046
 H         1.591638         2.968345         0.741157
 H         1.389668         0.369433         3.474128
 H         0.033229         1.540502         3.947548
 H        -0.465936        -0.961450         2.590011
 H        -2.459149         0.742156         1.389550
 H        -0.842876        -0.408426        -0.552333
 H        -0.489949         1.289674        -0.776717
 H         2.509158         0.008679         0.350365
 H        -0.854665         3.008792         0.711822
 H        -1.338147         2.903956         2.447446
