19
Iteration:  2593
 O         1.654224         2.731461         1.661736
 C         0.632078         1.864692         1.907602
 C         0.392197         1.116243         3.184760
 C        -0.325087         0.076231         2.294022
 C        -1.367643         0.908739         1.316470
 C        -0.484068         0.360739         0.087897
 C         0.638890         0.471143         1.111739
 O         1.870746        -0.263666         0.788067
 C        -0.797874         2.287534         1.539190
 H         2.269187         2.600843         2.429167
 H         1.396095         0.757323         3.623210
 H        -0.182024         1.629219         3.979914
 H        -0.491027        -1.061628         2.535559
 H        -2.425346         0.584570         1.322769
 H        -0.669489        -0.693185        -0.164494
 H        -0.395376         0.817596        -0.929217
 H         2.485777         0.376195         0.255886
 H        -0.791957         2.938374         0.613835
 H        -1.277756         2.932192         2.348155
