19
Iteration:   266charge 0 multiplicity 1
 O         1.650797         2.814309         1.847471
 C         0.678949         1.766764         1.863488
 C         0.508645         0.830312         3.149472
 C        -0.357132         0.068119         2.202834
 C        -1.323437         0.942045         1.250230
 C        -0.478922         0.606964        -0.043446
 C         0.598158         0.410152         1.002844
 O         1.838940        -0.258761         0.783591
 C        -0.813925         2.266471         1.757748
 H         1.512600         3.447339         1.127780
 H         1.357098         0.156129         3.425904
 H         0.196934         1.276839         4.082036
 H        -0.704561        -1.088551         2.332747
 H        -2.437969         0.841190         1.316452
 H        -0.884448        -0.300841        -0.506510
 H        -0.392000         1.478560        -0.693211
 H         2.546974         0.190874         1.307295
 H        -0.940345         3.207346         1.152800
 H        -1.252638         2.597288         2.672703
