19
Iteration:  1826charge 0 multiplicity 1
 O         1.701221         2.827288         1.852229
 C         0.715631         1.808177         1.891256
 C         0.436478         0.989361         3.209206
 C        -0.376978         0.093281         2.195591
 C        -1.318253         0.902794         1.259226
 C        -0.591735         0.347602         0.072455
 C         0.550444         0.384121         0.992076
 O         1.900158        -0.088999         0.757042
 C        -0.727478         2.292638         1.677435
 H         2.267122         3.032037         1.084604
 H         1.344962         0.403627         3.543310
 H         0.003219         1.555773         4.074564
 H        -0.750799        -0.926394         2.325470
 H        -2.469216         0.647005         1.367318
 H        -1.095609        -0.675622        -0.212873
 H        -0.438392         0.965476        -0.909789
 H         1.824465        -0.930717         0.395608
 H        -0.723554         3.073820         0.900356
 H        -1.252421         2.628581         2.636007
