19
Iteration:  4031charge 0 multiplicity 1
 O         1.734692         2.832332         1.652511
 C         0.660356         1.850785         1.821597
 C         0.436937         1.106159         3.171576
 C        -0.388262         0.125079         2.266990
 C        -1.300870         0.825628         1.328595
 C        -0.586612         0.401386         0.092538
 C         0.636298         0.347943         1.081371
 O         1.908192        -0.356923         0.932999
 C        -0.828535         2.299935         1.515878
 H         1.534715         3.635992         2.202700
 H         1.347467         0.542589         3.592822
 H        -0.043388         1.736736         3.914053
 H        -0.667651        -0.816323         2.579827
 H        -2.395683         0.710920         1.137313
 H        -0.936693        -0.551951        -0.389049
 H        -0.532750         1.225782        -0.701528
 H         2.574195         0.137540         0.490200
 H        -0.967608         2.827208         0.578728
 H        -1.161000         2.842240         2.399506
