19
Iteration:  2602charge 0 multiplicity 1
 O         1.649607         2.790564         1.761789
 C         0.613794         1.871332         1.877524
 C         0.421798         1.150287         3.212614
 C        -0.268414         0.072884         2.324744
 C        -1.330096         0.861252         1.334993
 C        -0.484966         0.362160         0.011546
 C         0.633157         0.417096         1.088066
 O         1.797863        -0.286213         0.798890
 C        -0.814676         2.290711         1.452953
 H         2.478465         2.515787         2.214928
 H         1.321752         0.579090         3.532508
 H        -0.024504         1.713360         4.075190
 H        -0.389305        -1.042619         2.710984
 H        -2.377206         0.728788         1.545267
 H        -0.754282        -0.665448        -0.290062
 H        -0.173988         1.127097        -0.783117
 H         2.232606         0.366784         0.143974
 H        -0.797340         2.822063         0.479797
 H        -1.346270         2.866505         2.284525
