19
Iteration:   104
 O         1.587842         2.752598         1.810928
 C         0.569028         1.830351         1.897096
 C         0.595307         0.885740         3.075121
 C        -0.262480         0.024007         2.253600
 C        -1.321697         0.908101         1.286203
 C        -0.468869         0.620877        -0.025000
 C         0.607408         0.507134         1.034615
 O         1.817090        -0.335288         0.853386
 C        -0.881973         2.378673         1.665415
 H         2.097643         2.787853         2.645775
 H         1.681649         0.495948         3.217957
 H         0.214567         1.240437         4.092182
 H        -0.480594        -1.136985         2.304237
 H        -2.333855         0.465453         1.382586
 H        -0.686876        -0.421648        -0.471120
 H        -0.447650         1.514145        -0.691536
 H         2.270906        -0.195315        -0.061107
 H        -0.983476         3.032784         0.720792
 H        -1.275152         3.071306         2.504179
