19
Iteration:  3087
 O         1.754309         2.648279         1.642788
 C         0.634725         1.773515         1.896946
 C         0.367546         1.040735         3.219904
 C        -0.302684         0.029742         2.168148
 C        -1.354924         0.926797         1.369398
 C        -0.589663         0.374000         0.121294
 C         0.601890         0.453937         1.065470
 O         1.875321        -0.110602         0.872501
 C        -0.695022         2.346985         1.560239
 H         1.517914         2.884609         0.708779
 H         1.255628         0.596818         3.715705
 H        -0.320704         1.540351         3.955756
 H        -0.547286        -0.986980         2.390732
 H        -2.480389         0.666873         1.398109
 H        -0.858460        -0.708060        -0.193620
 H        -0.476299         1.028671        -0.819215
 H         2.476387         0.520778         1.381238
 H        -0.825257         2.898753         0.568006
 H        -1.167489         2.994051         2.349786
