19
Iteration:  2506charge 0 multiplicity 1
 O         1.755422         2.800179         1.753596
 C         0.695035         1.841485         1.894044
 C         0.339804         1.099875         3.171655
 C        -0.291295         0.023959         2.250841
 C        -1.336800         0.879834         1.311368
 C        -0.556790         0.343887         0.066320
 C         0.609612         0.395264         1.049176
 O         1.845628        -0.246815         0.824689
 C        -0.752647         2.335066         1.607028
 H         1.552976         3.225362         0.888961
 H         1.146726         0.624701         3.788830
 H        -0.194795         1.821292         3.792705
 H        -0.539667        -1.088075         2.542183
 H        -2.418836         0.686603         1.269412
 H        -0.879622        -0.662309        -0.115788
 H        -0.448285         0.974680        -0.748281
 H         2.483719         0.258261         0.313479
 H        -0.969306         3.038683         0.781549
 H        -1.242028         2.621551         2.549589
