19
Iteration:  2300
 O         1.630455         2.924682         1.967899
 C         0.659433         1.920057         1.859006
 C         0.472381         1.121552         3.149097
 C        -0.287850         0.077619         2.247879
 C        -1.277639         0.917615         1.259597
 C        -0.518848         0.362238         0.110945
 C         0.651864         0.268053         1.062479
 O         1.828348        -0.466790         0.745378
 C        -0.814304         2.352873         1.531425
 H         1.588943         3.598509         1.269739
 H         1.363803         0.532023         3.512506
 H        -0.098378         1.746964         3.820440
 H        -0.576019        -0.932319         2.667534
 H        -2.336821         0.787312         1.345487
 H        -0.756681        -0.678648        -0.223652
 H        -0.417721         1.044263        -0.799172
 H         2.054384        -0.168460        -0.105082
 H        -0.873082         3.026737         0.619964
 H        -1.322087         2.860614         2.361241
