19
Iteration:  3284
 O         1.740401         2.712268         1.863286
 C         0.660120         1.851608         1.855302
 C         0.497878         1.069306         3.159450
 C        -0.417234         0.097959         2.355436
 C        -1.384040         0.938043         1.428242
 C        -0.440537         0.338069        -0.026125
 C         0.506056         0.385423         1.064877
 O         1.846838        -0.201752         0.781595
 C        -0.769338         2.262384         1.433973
 H         1.804990         3.149567         0.989409
 H         1.413956         0.510043         3.490750
 H        -0.026646         1.732595         4.050244
 H        -0.758105        -0.812796         2.862400
 H        -2.536814         0.813726         1.459896
 H        -0.685355        -0.737574        -0.276991
 H        -0.414691         1.146371        -0.779108
 H         2.352156         0.506163         0.438873
 H        -0.556087         2.754161         0.493528
 H        -1.239653         2.839503         2.221213
