19
Iteration:   922
 O         1.718853         2.769429         1.829549
 C         0.654182         1.821007         1.923073
 C         0.447463         0.975986         3.178697
 C        -0.215286        -0.002036         2.126566
 C        -1.321762         0.896299         1.343072
 C        -0.621309         0.560591         0.036421
 C         0.619084         0.476992         1.008397
 O         1.801741        -0.221959         0.667159
 C        -0.803917         2.264999         1.626556
 H         2.165709         2.932913         2.677229
 H         1.360700         0.544209         3.558929
 H        -0.049442         1.392698         4.088167
 H        -0.585927        -0.977773         2.315155
 H        -2.463878         0.716064         1.528056
 H        -0.868423        -0.443402        -0.390404
 H        -0.495201         1.465485        -0.684495
 H         2.103681        -0.638825         1.482062
 H        -0.854762         2.765671         0.618046
 H        -1.158572         2.949876         2.447551
