19
Iteration:  2660
 O         1.605354         2.917549         1.666530
 C         0.680600         1.846569         1.929186
 C         0.438388         0.984922         3.156637
 C        -0.314840         0.042902         2.244466
 C        -1.309532         0.904348         1.218154
 C        -0.514875         0.307603         0.050973
 C         0.621212         0.472790         1.123232
 O         1.859442        -0.230964         0.900483
 C        -0.758365         2.333600         1.583501
 H         2.483579         2.573289         1.882309
 H         1.370951         0.454264         3.514047
 H        -0.059043         1.493310         3.969473
 H        -0.713925        -0.892372         2.542203
 H        -2.372367         0.860184         1.328988
 H        -1.072501        -0.617486        -0.000154
 H        -0.385812         0.709452        -0.908292
 H         1.832777        -0.784677         0.158921
 H        -0.694147         3.193020         0.847244
 H        -1.352482         2.714490         2.434517
