19
Iteration:  4656charge 0 multiplicity 1
 O         1.556600         2.967451         1.705363
 C         0.645484         1.895331         1.768211
 C         0.470747         1.111338         3.168400
 C        -0.322485         0.179314         2.294299
 C        -1.305367         0.927229         1.342601
 C        -0.542611         0.299692         0.115622
 C         0.658888         0.368300         1.081574
 O         1.903567        -0.463246         0.991396
 C        -0.770115         2.319278         1.363299
 H         2.238534         2.745984         2.371129
 H         1.454100         0.754870         3.556308
 H        -0.224904         1.603523         4.002450
 H        -0.734975        -0.839614         2.538568
 H        -2.433764         0.610401         1.323136
 H        -0.545067        -0.838854         0.152709
 H        -0.554027         0.797270        -0.865917
 H         2.119457        -0.379952         0.017782
 H        -0.902981         2.818824         0.405513
 H        -1.209962         2.850465         2.259318
