19
Iteration:  4541
 O         1.658054         2.718295         1.650343
 C         0.627326         1.839923         1.791228
 C         0.424541         1.153496         3.185532
 C        -0.340732         0.171443         2.306070
 C        -1.346421         0.911808         1.343559
 C        -0.577879         0.267967         0.129312
 C         0.645394         0.392681         1.070232
 O         1.948336        -0.296541         0.912290
 C        -0.823910         2.332048         1.364000
 H         2.011449         3.050851         2.505582
 H         1.426188         0.625043         3.358582
 H        -0.051372         1.706941         4.041568
 H        -0.604556        -0.830120         2.689934
 H        -2.478282         0.776742         1.530310
 H        -0.769294        -0.845668         0.076980
 H        -0.489676         1.026333        -0.672872
 H         2.621302         0.443505         1.160650
 H        -0.861602         2.885598         0.336863
 H        -1.223124         2.963199         2.196023
