19
Iteration:  2133charge 0 multiplicity 1
 O         1.746731         2.886036         1.836628
 C         0.674801         1.897244         1.929612
 C         0.466643         0.961389         3.165467
 C        -0.352882         0.077332         2.206143
 C        -1.351999         0.965029         1.223472
 C        -0.563094         0.344050         0.040323
 C         0.661770         0.471558         1.042121
 O         1.794937        -0.353404         0.758820
 C        -0.763879         2.247500         1.604585
 H         1.362936         3.697145         1.451772
 H         1.283375         0.412142         3.611670
 H        -0.140286         1.355942         4.006980
 H        -0.454812        -0.998212         2.491201
 H        -2.432879         0.760888         1.427989
 H        -0.888561        -0.637921        -0.034349
 H        -0.511082         0.840473        -0.920675
 H         2.663950         0.142190         1.060047
 H        -0.942528         3.035251         0.858859
 H        -1.274519         2.688897         2.489597
