19
Iteration:  3784
 O         1.765016         2.741998         1.701998
 C         0.651173         1.870091         1.910393
 C         0.353819         1.106508         3.190145
 C        -0.345020         0.052447         2.289012
 C        -1.292245         0.868172         1.285329
 C        -0.562535         0.235724         0.053820
 C         0.588958         0.401461         1.110709
 O         1.790328        -0.091655         0.856884
 C        -0.722119         2.363494         1.484289
 H         2.582738         2.208415         1.909688
 H         1.137346         0.547857         3.706395
 H        -0.275672         1.596957         3.970784
 H        -0.472816        -0.981778         2.634269
 H        -2.333192         0.777299         1.567190
 H        -0.716066        -0.866099         0.040671
 H        -0.564360         0.726030        -0.983228
 H         2.255834         0.310661         0.041719
 H        -0.622681         2.998224         0.668094
 H        -1.359027         2.899640         2.133613
