19
Iteration:  1618
 O         1.727258         2.644715         1.708100
 C         0.653774         1.830328         1.875632
 C         0.419984         0.865338         3.150308
 C        -0.239879        -0.004354         2.164769
 C        -1.279884         0.965827         1.347133
 C        -0.708044         0.603919         0.006293
 C         0.625918         0.461150         0.988981
 O         1.935404        -0.146543         0.971488
 C        -0.803700         2.372387         1.672635
 H         1.448017         3.514478         1.395804
 H         1.371849         0.403700         3.592497
 H        -0.283479         1.195888         3.941790
 H        -0.448818        -1.049872         2.364602
 H        -2.440014         0.628724         1.220780
 H        -1.000766        -0.349728        -0.486757
 H        -0.591039         1.253482        -0.864593
 H         2.004873        -1.130901         0.616241
 H        -0.884497         3.078313         0.753063
 H        -1.201497         2.744727         2.645226
