19
Iteration:  4551charge 0 multiplicity 1
 O         1.740220         2.714360         1.563480
 C         0.599739         1.861871         1.839126
 C         0.433877         1.113248         3.187903
 C        -0.383251         0.103801         2.330178
 C        -1.363631         0.885210         1.334758
 C        -0.521884         0.301848         0.127573
 C         0.631977         0.473131         1.106418
 O         1.897931        -0.199380         0.949539
 C        -0.834184         2.282613         1.401502
 H         2.088669         2.752101         2.477749
 H         1.450402         0.661045         3.463856
 H         0.150682         1.702960         4.093630
 H        -0.902003        -0.789111         2.671849
 H        -2.524020         0.706489         1.297577
 H        -0.790284        -0.813563        -0.153592
 H        -0.638281         0.593631        -0.934318
 H         2.766524         0.276128         1.010817
 H        -0.663728         2.768066         0.367173
 H        -1.316787         3.032650         2.077642
