19
Iteration:  2959charge 0 multiplicity 1
 O         1.792722         2.755052         1.852780
 C         0.652793         1.859715         1.872202
 C         0.489186         1.060239         3.139539
 C        -0.311157         0.092220         2.270700
 C        -1.420570         0.953872         1.318587
 C        -0.526367         0.352386         0.024184
 C         0.653881         0.422566         1.017297
 O         1.853043        -0.294723         0.793122
 C        -0.916807         2.378452         1.571685
 H         1.793638         2.907159         0.906812
 H         1.465857         0.546839         3.266203
 H         0.231718         1.470464         4.149115
 H        -0.577528        -0.993025         2.390553
 H        -2.594868         0.735183         1.289542
 H        -0.815327        -0.692557        -0.020383
 H        -0.638025         0.669002        -1.056135
 H         2.425603         0.038893         1.488870
 H        -1.207242         2.999772         0.710465
 H        -1.278418         2.911606         2.487715
