19
Iteration:  1883charge 0 multiplicity 1
 O         1.860308         2.533935         1.912054
 C         0.643330         1.825351         1.878763
 C         0.380991         1.089370         3.228815
 C        -0.356148         0.009033         2.370766
 C        -1.367856         0.870940         1.263673
 C        -0.585819         0.366527         0.051011
 C         0.571988         0.456224         1.064867
 O         1.933907         0.101270         0.628600
 C        -0.827436         2.275257         1.531372
 H         2.076550         2.997184         1.089865
 H         1.333647         0.901696         3.676404
 H        -0.285106         1.700756         3.948629
 H        -0.694768        -0.963797         2.629636
 H        -2.409459         0.685403         1.430388
 H        -0.770060        -0.778759        -0.159592
 H        -0.520686         1.101921        -0.828484
 H         1.775533        -0.890581         0.389902
 H        -0.774035         2.989319         0.676428
 H        -1.353289         2.776279         2.344045
