19
Iteration:  4946
 O         1.755937         2.653681         1.593551
 C         0.637018         1.820696         1.831067
 C         0.374109         1.179495         3.196428
 C        -0.336895         0.168315         2.286362
 C        -1.333708         0.873935         1.291983
 C        -0.562301         0.209094         0.106127
 C         0.569818         0.399547         1.122302
 O         1.927640        -0.114746         0.960218
 C        -0.818343         2.285697         1.440342
 H         2.206447         2.953402         2.401063
 H         1.396791         0.783430         3.630236
 H        -0.274290         1.789082         3.917683
 H        -0.543539        -0.943570         2.595137
 H        -2.420857         0.744410         1.183877
 H        -0.914105        -0.813528        -0.167167
 H        -0.460313         0.766675        -0.804989
 H         2.670132         0.464434         0.691453
 H        -1.104317         2.974210         0.620272
 H        -1.263275         2.803738         2.287693
