19
Iteration:  1703charge 0 multiplicity 1
 O         1.777031         2.733777         1.986107
 C         0.702469         1.766200         1.842116
 C         0.287304         1.033385         3.167486
 C        -0.291145        -0.050597         2.263695
 C        -1.343152         0.891697         1.473460
 C        -0.658648         0.438169         0.130643
 C         0.650900         0.488113         1.002220
 O         1.862519        -0.014016         0.625696
 C        -0.730934         2.301147         1.429079
 H         2.569280         2.217643         1.700521
 H         1.264415         0.758326         3.689671
 H        -0.364583         1.487973         3.903277
 H        -0.614460        -1.114212         2.420551
 H        -2.392528         0.722513         1.660999
 H        -0.692231        -0.609437        -0.334265
 H        -0.667285         1.094570        -0.861183
 H         1.658829        -0.725727         0.070768
 H        -0.740126         2.764746         0.474627
 H        -1.067621         2.873832         2.302932
