19
Iteration:  4611charge 0 multiplicity 1
 O         1.672603         2.715125         1.547261
 C         0.584417         1.852416         1.778701
 C         0.337339         1.149783         3.195853
 C        -0.322942         0.093849         2.294660
 C        -1.413604         0.890715         1.352358
 C        -0.520031         0.332981         0.156458
 C         0.694669         0.395430         1.140807
 O         1.984881        -0.231687         0.999312
 C        -0.823211         2.332903         1.421392
 H         2.477626         2.250858         1.875068
 H         1.286818         0.631072         3.425092
 H        -0.250853         1.775016         3.969580
 H        -0.623628        -0.956394         2.587099
 H        -2.517628         0.724590         1.432159
 H        -0.835496        -0.596710        -0.311426
 H        -0.416544         1.069222        -0.671524
 H         2.605530         0.457765         0.638392
 H        -0.864595         2.829921         0.452937
 H        -1.237048         2.891643         2.290215
