19
Iteration:   835charge 0 multiplicity 1
 O         1.812240         2.541027         1.931734
 C         0.593469         1.839509         1.901728
 C         0.441667         1.001662         3.134221
 C        -0.274294         0.007109         2.255534
 C        -1.327475         0.886040         1.328423
 C        -0.632604         0.496884         0.093361
 C         0.603924         0.499458         1.028558
 O         1.870541        -0.104232         0.754550
 C        -0.829699         2.332395         1.531383
 H         1.886506         3.154077         1.176583
 H         1.356166         0.502552         3.355658
 H        -0.007172         1.523002         4.008598
 H        -0.567575        -1.040328         2.508300
 H        -2.524837         0.745479         1.486020
 H        -0.718668        -0.544787        -0.247203
 H        -0.665972         1.197818        -0.768056
 H         2.192636         0.336175        -0.111489
 H        -0.835944         2.844220         0.521573
 H        -1.349505         2.920656         2.338537
