19
Iteration:  4934charge 0 multiplicity 1
 O         1.811632         2.645190         1.506213
 C         0.652071         1.898823         1.876063
 C         0.349678         1.106679         3.238213
 C        -0.402065         0.134332         2.311637
 C        -1.362887         0.862198         1.250673
 C        -0.510687         0.261472         0.119275
 C         0.653159         0.364256         1.145976
 O         1.912242        -0.115185         0.938462
 C        -0.818291         2.302471         1.431672
 H         1.830537         3.334722         2.199101
 H         1.247455         0.532802         3.756375
 H        -0.276796         1.639531         4.075353
 H        -0.880208        -0.853606         2.671200
 H        -2.418380         0.730822         1.507028
 H        -0.640917        -0.851268         0.028621
 H        -0.514031         0.782775        -0.789070
 H         2.158798         0.817837         0.637583
 H        -0.811918         2.984829         0.530836
 H        -1.414247         2.623629         2.291479
