19
Iteration:  2082charge 0 multiplicity 1
 O         1.660632         2.763673         1.720480
 C         0.671497         1.795245         1.852828
 C         0.470603         0.902251         3.194363
 C        -0.262042         0.008200         2.208694
 C        -1.358639         0.905014         1.327176
 C        -0.539507         0.627701         0.002285
 C         0.631894         0.422514         1.070636
 O         1.826903        -0.248846         1.001909
 C        -0.801964         2.315636         1.549813
 H         1.538139         3.309117         0.915269
 H         1.337352         0.181957         3.612156
 H         0.217860         1.293096         4.209386
 H        -0.742302        -1.020204         2.434582
 H        -2.316193         0.508013         1.329059
 H        -0.660735        -0.266721        -0.759821
 H        -0.377804         1.613415        -0.477932
 H         2.199021        -0.118982         0.072963
 H        -0.967029         3.106523         0.728258
 H        -1.185848         2.824715         2.434796
