19
Iteration:   688
 O         1.773524         2.658265         1.808430
 C         0.674700         1.749409         1.933353
 C         0.436254         0.904246         3.152711
 C        -0.426820         0.025481         2.288438
 C        -1.378998         0.895609         1.423402
 C        -0.578194         0.508244         0.103599
 C         0.553815         0.413829         1.057810
 O         1.895757        -0.003116         0.613036
 C        -0.685101         2.287286         1.537590
 H         1.471027         3.442260         1.298842
 H         1.342976         0.380626         3.583816
 H         0.016095         1.443952         3.972450
 H        -0.885417        -0.834943         2.594931
 H        -2.459663         0.617638         1.329846
 H        -0.829528        -0.516518        -0.161091
 H        -0.432438         1.179274        -0.788465
 H         2.460733         0.085718         1.340921
 H        -0.771047         2.666110         0.488248
 H        -1.179100         3.032787         2.147030
