19
Iteration:   159
 O         1.575518         2.775038         1.804280
 C         0.657636         1.789569         2.002106
 C         0.390271         0.856660         3.208972
 C        -0.318524         0.012436         2.129604
 C        -1.279967         0.971264         1.348335
 C        -0.536224         0.525271         0.085683
 C         0.603678         0.441517         1.003465
 O         1.875242        -0.173390         0.760159
 C        -0.719676         2.307143         1.576355
 H         2.411195         2.410012         1.496180
 H         1.355625         0.299965         3.539982
 H        -0.255258         1.299316         4.034189
 H        -0.532442        -1.172576         2.207247
 H        -2.416110         0.885176         1.402679
 H        -1.033489        -0.457669        -0.309374
 H        -0.473076         1.284196        -0.715927
 H         2.610623         0.451037         0.585782
 H        -0.738849         2.897297         0.593776
 H        -1.127442         3.022354         2.399162
