19
Iteration:  4999charge 0 multiplicity 1
 O         1.588792         2.927962         1.616491
 C         0.641560         1.857372         1.907018
 C         0.418430         1.112969         3.221666
 C        -0.330556         0.131006         2.292037
 C        -1.336578         0.872113         1.247223
 C        -0.517996         0.275920         0.060492
 C         0.598246         0.376564         1.120929
 O         1.863776        -0.320776         0.960442
 C        -0.687410         2.297388         1.439624
 H         2.504125         2.691688         1.862656
 H         1.272005         0.719409         3.901397
 H        -0.120958         1.701351         4.063177
 H        -0.656894        -0.902936         2.704937
 H        -2.424868         0.747094         1.218702
 H        -0.567599        -0.857645         0.114764
 H        -0.583505         0.716949        -0.905896
 H         2.345287         0.065665         0.167058
 H        -0.577131         2.888042         0.432347
 H        -1.281396         2.829550         2.257121
