19
Iteration:  3138charge 0 multiplicity 1
 O         1.716210         2.697703         1.805717
 C         0.585537         1.848481         1.791410
 C         0.465376         1.075678         3.141059
 C        -0.262445         0.072389         2.339790
 C        -1.295030         0.923051         1.325777
 C        -0.522559         0.433356         0.057831
 C         0.599253         0.395787         1.095334
 O         1.811838        -0.291935         0.815659
 C        -0.820376         2.321162         1.504777
 H         1.666159         3.444800         1.198642
 H         1.427583         0.692240         3.559250
 H        -0.024423         1.570264         4.001745
 H        -0.585215        -0.923542         2.637057
 H        -2.318030         0.651088         1.335550
 H        -0.712443        -0.575158        -0.293019
 H        -0.435720         1.134054        -0.755837
 H         2.417769         0.392430         0.979657
 H        -0.915337         2.836487         0.556724
 H        -1.381136         2.827125         2.284375
