19
Iteration:  3100charge 0 multiplicity 1
 O         1.699270         2.680977         1.607230
 C         0.701587         1.804035         1.873203
 C         0.330075         0.980453         3.262540
 C        -0.383932         0.116596         2.350946
 C        -1.296843         0.902146         1.290810
 C        -0.519251         0.452790         0.067982
 C         0.635776         0.417985         1.103447
 O         1.887718        -0.153318         0.805930
 C        -0.766399         2.268273         1.556858
 H         1.700118         3.077127         0.727883
 H         1.115073         0.441801         3.748930
 H        -0.266395         1.574050         3.962361
 H        -0.611490        -0.932120         2.598806
 H        -2.449326         0.907224         1.450607
 H        -0.863316        -0.633811        -0.029734
 H        -0.731207         0.991909        -0.989590
 H         2.667424         0.387415         1.129397
 H        -0.653544         3.053618         0.733772
 H        -1.122894         2.768556         2.500082
