19
Iteration:  2175
 O         1.821903         2.539326         1.932631
 C         0.605490         1.791669         1.869044
 C         0.319514         1.106638         3.205132
 C        -0.270866        -0.009736         2.342441
 C        -1.361428         0.894535         1.365901
 C        -0.593334         0.384014         0.122060
 C         0.602832         0.353125         1.087590
 O         1.899572         0.052127         0.608697
 C        -0.802600         2.301127         1.385079
 H         2.190059         2.833857         1.075917
 H         1.201227         0.803109         3.636014
 H        -0.167722         1.645983         3.986142
 H        -0.692261        -0.938744         2.680788
 H        -2.491417         0.987040         1.356006
 H        -0.886624        -0.634544        -0.079625
 H        -0.470397         1.047086        -0.828363
 H         2.530065         0.560249         1.083901
 H        -0.785262         2.727728         0.421738
 H        -1.378004         3.032109         1.997235
