19
Iteration:   906
 O         1.644399         2.746194         1.714826
 C         0.631549         1.877042         1.912852
 C         0.498296         0.887717         3.156181
 C        -0.340704        -0.000487         2.242420
 C        -1.314928         0.850684         1.347665
 C        -0.477300         0.644405         0.016623
 C         0.623846         0.442627         1.002041
 O         1.812082        -0.185087         0.739664
 C        -0.807824         2.355425         1.669842
 H         2.334796         2.397489         2.315873
 H         1.545686         0.483263         3.318582
 H        -0.054097         1.264524         4.043737
 H        -0.388179        -1.101432         2.487754
 H        -2.357341         0.637701         1.319681
 H        -0.744677        -0.263454        -0.551197
 H        -0.523620         1.436666        -0.744176
 H         1.981750        -0.943496         1.401628
 H        -0.876492         3.156675         0.938603
 H        -1.395452         2.664950         2.530650
