19
Iteration:   276charge 0 multiplicity 1
 O         1.650018         2.756782         1.865829
 C         0.623644         1.821890         1.910515
 C         0.536589         0.896218         3.131964
 C        -0.328065         0.056498         2.056526
 C        -1.296478         1.003363         1.281811
 C        -0.515928         0.587771         0.002002
 C         0.624013         0.359482         0.978325
 O         1.863499        -0.263989         0.781137
 C        -0.865646         2.316976         1.785923
 H         1.765094         3.314899         1.093343
 H         1.469481         0.338826         3.277798
 H         0.075951         1.299204         4.001490
 H        -0.806280        -0.979827         2.366656
 H        -2.321717         0.625492         1.364236
 H        -0.746678        -0.408519        -0.347107
 H        -0.396685         1.236021        -0.899555
 H         2.295303         0.045196         1.567651
 H        -1.058705         3.245803         1.197627
 H        -1.243982         2.281456         2.773632
