19
Iteration:  2293
 O         1.648620         2.934878         1.946226
 C         0.636878         1.957176         1.878219
 C         0.491630         1.116841         3.145605
 C        -0.280568         0.086501         2.190204
 C        -1.274319         0.933365         1.267824
 C        -0.495669         0.357936         0.080409
 C         0.683015         0.311073         1.006720
 O         1.801505        -0.488457         0.783622
 C        -0.805463         2.310332         1.578498
 H         1.553444         3.653282         1.287299
 H         1.255067         0.599648         3.761697
 H        -0.028333         1.642678         4.009382
 H        -0.720190        -0.751742         2.555709
 H        -2.389262         0.669611         1.283790
 H        -0.993108        -0.624508        -0.012874
 H        -0.282612         0.749663        -0.843779
 H         1.983414        -0.262129        -0.113609
 H        -1.016697         2.999239         0.719321
 H        -1.437311         2.689196         2.428290
