19
Iteration:   410charge 0 multiplicity 1
 O         1.538803         2.805333         1.697171
 C         0.635623         1.823409         1.957182
 C         0.468688         0.805395         3.114308
 C        -0.323107        -0.018151         2.101431
 C        -1.371885         0.981389         1.350573
 C        -0.489485         0.625314        -0.010748
 C         0.635170         0.410174         1.007134
 O         1.963018        -0.175778         0.878058
 C        -0.786894         2.357194         1.753551
 H         2.289481         2.335285         1.301400
 H         1.477806         0.342064         3.193186
 H         0.062898         1.151143         4.090476
 H        -0.583675        -1.140715         2.481803
 H        -2.481965         0.820393         1.267300
 H        -0.937480        -0.315646        -0.348612
 H        -0.342562         1.467897        -0.641987
 H         1.785072        -1.083160         0.924118
 H        -0.834351         3.180249         1.033440
 H        -1.098420         2.755027         2.727573
