19
Iteration:   705
 O         1.731741         2.627207         1.748991
 C         0.639210         1.785802         1.895764
 C         0.461573         0.882308         3.229567
 C        -0.316499        -0.003362         2.199562
 C        -1.362289         0.941132         1.340668
 C        -0.584413         0.480742         0.051464
 C         0.628579         0.459115         1.059365
 O         1.828706        -0.083802         0.774381
 C        -0.759467         2.356643         1.597895
 H         1.632197         3.155288         0.919012
 H         1.384404         0.381228         3.450925
 H         0.001463         1.297984         4.186840
 H        -0.480078        -1.152978         2.335787
 H        -2.423342         0.945193         1.543152
 H        -0.909382        -0.500659        -0.363759
 H        -0.629574         1.278942        -0.690713
 H         2.403133         0.622304         1.042942
 H        -0.659805         2.985389         0.725976
 H        -1.180929         2.848569         2.499886
