19
Iteration:  4955
 O         1.713888         2.671328         1.638723
 C         0.583413         1.840812         1.744024
 C         0.377437         1.221131         3.120268
 C        -0.317633         0.087049         2.348015
 C        -1.361945         0.857449         1.295775
 C        -0.551153         0.269467         0.090290
 C         0.689962         0.423051         1.047749
 O         1.894697        -0.171248         0.989107
 C        -0.823217         2.318370         1.479006
 H         2.223518         2.509203         2.453827
 H         1.320268         0.782522         3.665093
 H        -0.073958         1.863935         3.975090
 H        -0.494274        -0.978526         2.677305
 H        -2.427679         0.669534         1.420101
 H        -0.853731        -0.808185         0.015918
 H        -0.543812         0.752062        -0.830539
 H         2.493636         0.608068         0.832067
 H        -0.766120         2.798176         0.440148
 H        -1.195147         2.982438         2.311927
