19
Iteration:  4200
 O         1.734058         2.881343         1.709693
 C         0.591269         1.886344         1.847280
 C         0.383973         1.151926         3.128180
 C        -0.366791         0.093091         2.329221
 C        -1.297787         0.767650         1.377377
 C        -0.446763         0.347547         0.147714
 C         0.640199         0.334377         1.115471
 O         1.761921        -0.388710         0.790475
 C        -0.763257         2.358173         1.386694
 H         1.752089         3.491036         2.475582
 H         1.303976         0.795797         3.551509
 H        -0.273191         1.732350         3.836083
 H        -0.511919        -0.933134         2.673294
 H        -2.327102         0.654455         1.345672
 H        -0.657024        -0.563440        -0.385768
 H        -0.407942         1.091622        -0.655045
 H         2.649741        -0.023843         0.878135
 H        -0.749372         3.026299         0.485734
 H        -1.024780         2.958370         2.317825
