19
Iteration:   706
 O         1.729187         2.624958         1.745450
 C         0.635020         1.791323         1.897540
 C         0.456912         0.884646         3.228537
 C        -0.307079        -0.007455         2.192314
 C        -1.368216         0.940853         1.338094
 C        -0.587218         0.480598         0.048238
 C         0.622465         0.466844         1.061748
 O         1.832225        -0.091365         0.783477
 C        -0.752708         2.360543         1.605957
 H         1.671132         3.142528         0.911409
 H         1.400235         0.393694         3.452181
 H         0.029563         1.302014         4.192594
 H        -0.494070        -1.137000         2.325720
 H        -2.365154         0.902217         1.518113
 H        -0.924772        -0.507368        -0.349755
 H        -0.626590         1.292990        -0.716407
 H         2.403280         0.629698         0.988287
 H        -0.685555         3.007200         0.760573
 H        -1.195742         2.812617         2.501288
