19
Iteration:  1273
 O         1.821388         2.590319         1.862058
 C         0.610918         1.879874         1.920469
 C         0.430782         1.060188         3.212669
 C        -0.285529         0.037202         2.329578
 C        -1.306076         0.847300         1.308370
 C        -0.542837         0.496912         0.090015
 C         0.568540         0.474708         1.065518
 O         1.844345        -0.114222         0.636098
 C        -0.869051         2.244743         1.508579
 H         1.945470         2.881025         2.783564
 H         1.536310         0.836936         3.451091
 H        -0.201091         1.606781         3.979724
 H        -0.515829        -1.005400         2.620401
 H        -2.477557         0.732950         1.361906
 H        -0.843096        -0.402088        -0.510856
 H        -0.250163         1.118549        -0.784450
 H         1.665351        -0.097715        -0.379986
 H        -0.759369         2.764990         0.562389
 H        -1.442224         2.842710         2.240688
