19
Iteration:  4053charge 0 multiplicity 1
 O         1.669168         2.791799         1.761419
 C         0.591726         1.791024         1.785799
 C         0.449964         1.092886         3.101380
 C        -0.239782         0.070936         2.253419
 C        -1.354236         0.949752         1.351781
 C        -0.515966         0.305370         0.087716
 C         0.592752         0.322307         1.116464
 O         1.821894        -0.293788         0.902557
 C        -0.746088         2.388212         1.429440
 H         1.398571         3.367933         2.471225
 H         1.543213         0.856215         3.389772
 H        -0.059335         1.715890         3.822278
 H        -0.470830        -0.839910         2.701175
 H        -2.467662         0.924514         1.604253
 H        -0.811337        -0.784993        -0.079256
 H        -0.528711         0.996155        -0.803647
 H         2.633606         0.270366         0.586646
 H        -0.687109         2.881787         0.463100
 H        -1.165077         2.978084         2.221243
