19
Iteration:  4580
 O         1.738952         2.609320         1.454049
 C         0.598596         1.796839         1.802771
 C         0.320091         1.134445         3.237689
 C        -0.329316         0.094526         2.331850
 C        -1.386212         0.916847         1.333621
 C        -0.532828         0.270317         0.050379
 C         0.671431         0.384831         1.148366
 O         1.910553        -0.032988         1.027347
 C        -0.757312         2.294273         1.465196
 H         2.375836         2.492468         2.166427
 H         1.156056         0.709286         3.753865
 H        -0.157041         1.718458         4.023018
 H        -0.817444        -0.867012         2.573138
 H        -2.494938         0.726571         1.392777
 H        -0.853247        -0.789371        -0.311716
 H        -0.355649         1.046306        -0.710303
 H         2.399328         0.609933         0.516948
 H        -0.838294         2.985180         0.661179
 H        -1.233512         2.829543         2.303604
