19
Iteration:    93charge 0 multiplicity 1
 O         1.633862         2.763849         1.854427
 C         0.640711         1.810540         1.903729
 C         0.523835         0.945195         3.115848
 C        -0.351541         0.006109         2.215677
 C        -1.409531         0.832778         1.372382
 C        -0.538242         0.595273         0.047252
 C         0.659304         0.499761         0.996415
 O         1.862670        -0.268678         0.799929
 C        -0.773618         2.336984         1.579328
 H         1.941335         2.942397         2.778893
 H         1.475049         0.311094         3.206078
 H         0.229567         1.462867         4.085521
 H        -0.363538        -1.144459         2.415188
 H        -2.507060         0.694609         1.260751
 H        -0.755599        -0.322466        -0.596931
 H        -0.553267         1.406707        -0.727869
 H         2.131293        -0.011443        -0.137574
 H        -0.786186         2.846524         0.561319
 H        -1.185953         2.960357         2.437326
