19
Iteration:  4822charge 0 multiplicity 1
 O         1.696468         2.831447         1.732040
 C         0.708229         1.817116         1.822949
 C         0.340892         1.163689         3.185548
 C        -0.387412         0.105587         2.361397
 C        -1.338283         0.848097         1.363279
 C        -0.538340         0.310145         0.166230
 C         0.686006         0.324362         1.104072
 O         1.878698        -0.263598         0.804717
 C        -0.745003         2.280467         1.351290
 H         1.359331         3.670796         1.325809
 H         1.248279         0.764597         3.635231
 H        -0.370283         1.789712         3.872276
 H        -0.662352        -0.791901         2.721008
 H        -2.396864         0.645117         1.449111
 H        -0.912674        -0.681349        -0.149032
 H        -0.487752         1.001687        -0.603287
 H         2.730948         0.093194         1.020518
 H        -0.844406         2.562473         0.288550
 H        -0.990909         3.049470         2.109990
