19
Iteration:  1465charge 0 multiplicity 1
 O         1.767708         2.709214         1.637164
 C         0.630871         1.813003         1.907510
 C         0.390217         0.944179         3.213916
 C        -0.353105         0.052308         2.145514
 C        -1.314905         0.885422         1.274068
 C        -0.552279         0.566465        -0.043924
 C         0.692705         0.489228         1.040632
 O         1.893869        -0.244504         0.980182
 C        -0.791297         2.320699         1.780284
 H         1.401682         3.280983         0.914493
 H         1.273608         0.568539         3.698677
 H        -0.233488         1.483587         3.953926
 H        -0.632198        -0.958462         2.337554
 H        -2.382893         0.528285         1.302949
 H        -0.876995        -0.397784        -0.338785
 H        -0.566291         1.342241        -0.718636
 H         1.943405        -0.611165         0.098009
 H        -1.051878         3.058800         0.939216
 H        -1.288675         2.802471         2.641676
