19
Iteration:  1535charge 0 multiplicity 1
 O         1.783676         2.763630         1.857147
 C         0.721783         1.869946         1.849179
 C         0.349578         1.032255         3.177831
 C        -0.296522         0.014837         2.127459
 C        -1.291705         0.841856         1.334056
 C        -0.695826         0.377666         0.053341
 C         0.608043         0.508501         1.039351
 O         1.854534        -0.126936         0.809368
 C        -0.743753         2.286585         1.578883
 H         2.513041         2.308312         2.346310
 H         1.229583         0.696821         3.793809
 H        -0.338087         1.527630         3.872660
 H        -0.720178        -1.009330         2.252443
 H        -2.417783         0.768574         1.374830
 H        -0.786689        -0.721477         0.033919
 H        -0.861371         1.070020        -0.794949
 H         1.940140        -0.500853        -0.052375
 H        -0.828855         2.967200         0.731824
 H        -1.169550         2.924796         2.371678
