19
Iteration:  1166charge 0 multiplicity 1
 O         1.771737         2.645519         1.570222
 C         0.669222         1.760164         1.937873
 C         0.401502         0.967635         3.229296
 C        -0.301166         0.026631         2.133423
 C        -1.369575         0.927932         1.375258
 C        -0.480346         0.601013        -0.081030
 C         0.654999         0.484912         1.049008
 O         1.829875        -0.191997         0.831450
 C        -0.871015         2.239008         1.809223
 H         1.425021         3.429118         1.095170
 H         1.316573         0.369388         3.645284
 H        -0.141886         1.397497         4.080805
 H        -0.642927        -1.116195         2.469795
 H        -2.527359         0.827248         1.279788
 H        -0.870364        -0.346447        -0.550020
 H        -0.415939         1.484912        -0.719278
 H         2.551699         0.342552         1.348112
 H        -1.020408         3.085340         1.130159
 H        -1.153142         2.564429         2.863430
