19
Iteration:  3662
 O         1.753377         2.660779         1.611480
 C         0.609445         1.756939         1.863955
 C         0.478267         1.049352         3.165295
 C        -0.385637         0.081790         2.268116
 C        -1.324161         0.841504         1.328494
 C        -0.594245         0.446674         0.076276
 C         0.581944         0.536367         1.056404
 O         1.856295        -0.176591         0.977002
 C        -0.735069         2.250186         1.510713
 H         1.608058         3.435063         2.204903
 H         1.430319         0.397014         3.165189
 H         0.159409         1.502314         4.102385
 H        -0.646632        -0.886931         2.560056
 H        -2.457608         0.783224         1.345572
 H        -0.826028        -0.481012        -0.460417
 H        -0.623441         1.174118        -0.753005
 H         2.437694         0.524879         0.791037
 H        -0.574707         2.807175         0.639578
 H        -1.242947         2.825277         2.272827
