19
Iteration:  4501
 O         1.731810         2.837847         1.636980
 C         0.670921         1.911191         1.881925
 C         0.365247         1.151531         3.248961
 C        -0.348178         0.202744         2.321462
 C        -1.352263         0.798885         1.326369
 C        -0.496942         0.278161         0.129782
 C         0.681945         0.442988         1.116780
 O         1.792875        -0.369421         0.842879
 C        -0.777556         2.267815         1.366932
 H         1.705625         3.417654         2.412888
 H         1.239064         0.628028         3.623093
 H        -0.223275         1.728551         3.969219
 H        -0.412211        -0.880537         2.549122
 H        -2.376232         0.724769         1.417554
 H        -0.538012        -0.731522        -0.122990
 H        -0.650442         0.749733        -0.833356
 H         2.569821         0.090843         0.535255
 H        -0.781704         2.737376         0.390498
 H        -1.261593         2.787965         2.185877
