19
Iteration:  3978
 O         1.745971         2.599037         1.504473
 C         0.643478         1.806143         1.867808
 C         0.418588         1.049446         3.186289
 C        -0.376516         0.083324         2.288218
 C        -1.411652         0.907390         1.356536
 C        -0.601353         0.474970         0.001640
 C         0.584155         0.367257         1.125600
 O         2.023813        -0.136031         1.000904
 C        -0.844306         2.274119         1.512349
 H         1.781735         3.545634         1.797107
 H         1.320503         0.461038         3.529902
 H        -0.123807         1.470800         4.017509
 H        -0.780561        -0.832405         2.602247
 H        -2.503579         0.750944         1.430094
 H        -0.681439        -0.555882        -0.205541
 H        -0.303914         1.130822        -0.715433
 H         2.610017         0.606442         0.768211
 H        -0.929850         2.971959         0.653234
 H        -1.067030         2.869932         2.485521
