19
Iteration:   845charge 0 multiplicity 1
 O         1.824041         2.590619         1.835999
 C         0.585892         1.821308         1.902361
 C         0.432534         0.927291         3.162715
 C        -0.359957         0.021442         2.159817
 C        -1.356159         0.886507         1.412350
 C        -0.568399         0.529589         0.120981
 C         0.592141         0.461034         0.996313
 O         1.890017        -0.044874         0.830446
 C        -0.787464         2.320850         1.564199
 H         1.864278         2.990457         0.936579
 H         1.404641         0.566038         3.467422
 H        -0.205002         1.196622         4.055765
 H        -0.392090        -1.076292         2.351943
 H        -2.599217         0.776788         1.471312
 H        -0.979702        -0.479726        -0.175925
 H        -0.440063         1.199530        -0.826087
 H         2.282111        -0.001140        -0.131539
 H        -0.890427         2.899592         0.564233
 H        -1.341610         2.970065         2.327229
