19
Iteration:  1350
 O         1.752731         2.650826         1.813742
 C         0.662681         1.866855         1.872149
 C         0.544044         0.955609         3.111486
 C        -0.368559         0.003871         2.201826
 C        -1.375970         0.855815         1.290880
 C        -0.466483         0.587138         0.002721
 C         0.601156         0.471944         1.067697
 O         1.837891        -0.123324         0.875692
 C        -0.881393         2.291646         1.612475
 H         1.757353         3.070475         0.913136
 H         1.582166         0.418104         3.220753
 H         0.262019         1.489014         4.062089
 H        -0.605417        -1.057644         2.551359
 H        -2.541942         0.891916         1.473927
 H        -0.668301        -0.462527        -0.338246
 H        -0.583933         1.536589        -0.592331
 H         1.789269        -1.057623         1.033923
 H        -1.077929         2.928527         0.764859
 H        -1.358845         2.801839         2.487182
