19
Iteration:    54
 O         1.743333         2.634989         1.818449
 C         0.590320         1.872158         1.979099
 C         0.298657         0.979103         3.235241
 C        -0.299347         0.006668         2.138531
 C        -1.362686         0.899317         1.324387
 C        -0.558671         0.319622         0.114945
 C         0.632290         0.454914         0.979351
 O         1.893447        -0.083264         0.565171
 C        -0.726156         2.451084         1.658008
 H         2.207039         2.688602         2.648689
 H         1.214201         0.532586         3.611979
 H        -0.346070         1.369786         3.994542
 H        -0.409677        -1.063050         2.363180
 H        -2.585279         0.848108         1.506620
 H        -0.745515        -0.786710         0.015412
 H        -0.643001         0.706031        -0.881756
 H         2.602441         0.521860         0.586969
 H        -0.615318         3.061376         0.800765
 H        -1.176107         2.891525         2.563295
