19
Iteration:   188
 O         1.802268         2.614308         1.931641
 C         0.683305         1.797634         1.906848
 C         0.432576         0.962184         3.187595
 C        -0.351767         0.049464         2.207865
 C        -1.380519         0.861996         1.313296
 C        -0.554999         0.426151         0.054957
 C         0.568246         0.506366         0.987698
 O         1.858850        -0.010733         0.709625
 C        -0.838772         2.314284         1.513292
 H         2.212858         2.408125         2.786515
 H         1.325939         0.460467         3.467899
 H        -0.019442         1.417311         4.043443
 H        -0.592530        -0.949132         2.570559
 H        -2.398536         0.765534         1.360962
 H        -0.697309        -0.546457        -0.256377
 H        -0.624393         1.086514        -0.812751
 H         2.250784         0.425894        -0.004949
 H        -1.035165         2.930700         0.632929
 H        -1.111134         2.720117         2.406255
