19
Iteration:     9
 O         1.793744         2.629006         1.745052
 C         0.637153         1.828000         1.891026
 C         0.413046         0.931871         3.164450
 C        -0.342093         0.010087         2.220294
 C        -1.386899         0.827053         1.325614
 C        -0.575933         0.508470         0.025340
 C         0.530452         0.428082         1.078134
 O         1.861022        -0.027769         0.729447
 C        -0.764797         2.295685         1.620426
 H         2.073971         2.960975         2.608868
 H         1.463414         0.632718         3.312380
 H         0.009563         1.442200         4.018022
 H        -0.547435        -1.071192         2.535925
 H        -2.667549         0.606607         1.396909
 H        -0.699596        -0.463286        -0.572788
 H        -0.420689         1.332901        -0.657739
 H         2.475487         0.613582         1.060788
 H        -0.603058         2.893596         0.754208
 H        -1.110447         2.866623         2.553159
