19
Iteration:  4632charge 0 multiplicity 1
 O         1.650747         2.865505         1.616964
 C         0.681422         1.881681         1.876864
 C         0.439971         1.144975         3.179131
 C        -0.286709         0.110189         2.335860
 C        -1.281246         0.844480         1.316021
 C        -0.500890         0.260458         0.025538
 C         0.560967         0.437032         1.120157
 O         1.739214        -0.274189         1.016115
 C        -0.745339         2.273756         1.411483
 H         2.495004         2.667232         2.040247
 H         1.361691         0.590837         3.613112
 H        -0.155678         1.813875         3.913985
 H        -0.579865        -0.946988         2.605264
 H        -2.274834         0.529412         1.089429
 H        -0.615531        -0.780591        -0.079092
 H        -0.443795         0.800907        -0.906020
 H         2.239748         0.266927         0.320106
 H        -0.728848         2.772234         0.421668
 H        -1.377866         2.788828         2.191543
