19
Iteration:   224
 O         1.765136         2.624659         1.876517
 C         0.624317         1.822856         1.951419
 C         0.338106         0.839091         3.247227
 C        -0.265851         0.025226         2.178033
 C        -1.294395         0.952924         1.343168
 C        -0.588538         0.454746         0.013922
 C         0.671916         0.495745         0.971692
 O         1.879473        -0.129820         0.710485
 C        -0.803620         2.396006         1.593629
 H         1.609565         3.578428         1.990150
 H         1.320334         0.506271         3.732597
 H        -0.424974         1.155647         4.006979
 H        -0.508435        -1.180719         2.382307
 H        -2.406869         0.698131         1.355786
 H        -0.932315        -0.573433        -0.309674
 H        -0.446815         1.193563        -0.754938
 H         2.200733         0.236808        -0.080419
 H        -1.080413         3.063752         0.748579
 H        -1.233665         2.950237         2.464679
