19
Iteration:  1385
 O         1.791388         2.650376         1.885538
 C         0.640438         1.834126         1.920988
 C         0.233896         1.028733         3.211187
 C        -0.299985        -0.003325         2.217510
 C        -1.276033         0.927021         1.395499
 C        -0.604258         0.390248         0.099408
 C         0.676866         0.429796         1.021591
 O         1.866713        -0.104631         0.562592
 C        -0.679362         2.379386         1.542923
 H         1.496748         3.576949         1.710957
 H         1.034038         0.689149         3.920862
 H        -0.437967         1.695453         3.795970
 H        -0.699735        -1.020727         2.606501
 H        -2.314062         0.915250         1.654438
 H        -0.720302        -0.645108        -0.140408
 H        -0.680898         0.838941        -0.858770
 H         2.119976        -0.988877         0.740533
 H        -0.817317         2.907959         0.618324
 H        -1.212203         2.858873         2.381054
