19
Iteration:  4024
 O         1.755968         2.807839         1.591849
 C         0.650701         1.825564         1.874237
 C         0.426015         1.085036         3.221321
 C        -0.351561         0.154432         2.228566
 C        -1.366204         0.839179         1.294772
 C        -0.521347         0.403518         0.030170
 C         0.675090         0.400199         1.102936
 O         1.857516        -0.350012         0.941060
 C        -0.824133         2.281982         1.543629
 H         1.494214         3.601322         2.113936
 H         1.304518         0.586160         3.545391
 H        -0.048435         1.750932         3.993687
 H        -0.584620        -0.939149         2.598210
 H        -2.451598         0.652949         1.449511
 H        -0.804444        -0.654260        -0.145121
 H        -0.586352         1.255783        -0.564623
 H         2.578768         0.168957         0.456433
 H        -0.888565         2.919824         0.632532
 H        -1.501210         2.834124         2.355962
