19
Iteration:  3655
 O         1.770648         2.607413         1.653938
 C         0.662100         1.802970         1.872431
 C         0.409516         1.021503         3.151347
 C        -0.407085         0.138063         2.272333
 C        -1.363077         0.849089         1.400659
 C        -0.575613         0.410908         0.063010
 C         0.578928         0.485262         1.085066
 O         1.861231        -0.128621         0.917352
 C        -0.750701         2.249875         1.461240
 H         1.599322         3.413316         2.150721
 H         1.352166         0.490689         3.182967
 H         0.371305         1.612610         4.089975
 H        -0.447053        -0.985058         2.398309
 H        -2.430871         0.827487         1.496141
 H        -0.663401        -0.573512        -0.380356
 H        -0.544623         1.133962        -0.714615
 H         2.420476         0.706715         0.755573
 H        -0.594697         2.766483         0.471379
 H        -1.239726         2.835335         2.252013
