19
Iteration:  4090charge 0 multiplicity 1
 O         1.881000         2.748420         1.585226
 C         0.640826         1.835902         1.881915
 C         0.334528         1.097784         3.195412
 C        -0.397349         0.091736         2.283777
 C        -1.379088         0.834755         1.324884
 C        -0.570602         0.272333         0.130452
 C         0.671185         0.429820         1.163272
 O         1.862202        -0.155089         0.817989
 C        -0.840172         2.283676         1.470493
 H         2.083429         3.074239         2.473879
 H         1.140443         0.564979         3.640663
 H        -0.239399         1.644051         4.009746
 H        -0.718355        -0.998865         2.559931
 H        -2.452661         0.740207         1.276749
 H        -0.563335        -0.783130        -0.284733
 H        -0.513231         0.947324        -0.762270
 H         2.483044         0.613111         0.991958
 H        -0.811445         2.846022         0.506874
 H        -1.223716         3.092582         2.239904
