19
Iteration:  4683charge 0 multiplicity 1
 O         1.577895         2.979804         1.718076
 C         0.611520         1.951475         1.837325
 C         0.421866         1.236705         3.142518
 C        -0.265040         0.107158         2.302435
 C        -1.338182         0.860359         1.309562
 C        -0.535232         0.300226         0.096256
 C         0.604191         0.224332         1.086630
 O         1.862355        -0.421362         0.986149
 C        -0.710734         2.312158         1.428110
 H         2.409677         2.545220         1.993919
 H         1.397741         1.000441         3.523927
 H        -0.224328         1.684772         3.793637
 H        -0.432741        -0.897313         2.619209
 H        -2.338561         0.629816         1.316895
 H        -0.643074        -0.762804        -0.255721
 H        -0.332515         1.045101        -0.758248
 H         2.131182        -0.327071         0.009985
 H        -0.693776         2.755320         0.418151
 H        -1.201088         2.876240         2.160563
