19
Iteration:  2485charge 0 multiplicity 1
 O         1.578252         2.894637         1.881075
 C         0.673507         1.872055         1.852500
 C         0.452693         1.062432         3.237351
 C        -0.269655         0.106584         2.199996
 C        -1.332839         0.911181         1.372033
 C        -0.578565         0.376031         0.080123
 C         0.689592         0.421606         1.021734
 O         1.792372        -0.415066         0.790506
 C        -0.696628         2.284697         1.455315
 H         1.604156         3.488692         1.112789
 H         1.359591         0.541665         3.630154
 H        -0.137372         1.480389         4.046456
 H        -0.659659        -0.925265         2.471907
 H        -2.411442         0.742974         1.573746
 H        -0.621540        -0.703168         0.000084
 H        -0.796887         0.950599        -0.770653
 H         2.657269         0.034087         0.445865
 H        -0.558409         2.698239         0.453133
 H        -1.042008         2.990924         2.183759
