19
Iteration:   451
 O         1.633294         2.808356         1.723438
 C         0.631088         1.804089         1.940754
 C         0.468928         0.938297         3.187820
 C        -0.312025        -0.020603         2.223228
 C        -1.362991         0.874723         1.265607
 C        -0.496323         0.577550         0.035472
 C         0.636172         0.469570         1.034803
 O         1.815468        -0.219265         0.770847
 C        -0.757386         2.302846         1.732099
 H         2.424587         2.695163         2.266740
 H         1.447177         0.460458         3.506864
 H        -0.081248         1.244216         4.085609
 H        -0.484859        -1.076835         2.350171
 H        -2.531302         0.730509         1.319506
 H        -0.579680        -0.473319        -0.432967
 H        -0.463606         1.448168        -0.752326
 H         1.896042        -0.241794        -0.230986
 H        -0.726708         3.016544         0.845464
 H        -1.190306         2.807543         2.611544
