19
Iteration:  4726
 O         1.651081         2.756734         1.531142
 C         0.598623         1.894549         1.819136
 C         0.385312         1.128116         3.182339
 C        -0.312166         0.051418         2.293407
 C        -1.393851         0.873633         1.308870
 C        -0.461974         0.277801         0.086670
 C         0.656773         0.426684         1.170402
 O         1.917497        -0.232822         1.020573
 C        -0.805974         2.338111         1.444656
 H         2.482376         2.394772         1.909096
 H         1.313843         0.749124         3.618324
 H        -0.264078         1.583487         3.930142
 H        -0.756334        -0.814722         2.665866
 H        -2.419031         0.912200         1.416108
 H        -0.828518        -0.805711         0.055449
 H        -0.526607         0.900944        -0.842863
 H         2.420053         0.413124         0.494851
 H        -0.749933         2.921852         0.519675
 H        -1.186710         2.867813         2.253390
