19
Iteration:  1766
 O         1.681392         2.787619         1.606850
 C         0.679512         1.752807         1.889713
 C         0.411484         0.927390         3.136853
 C        -0.299275         0.002622         2.191018
 C        -1.364487         0.898495         1.345534
 C        -0.553792         0.579580         0.024866
 C         0.567427         0.461997         0.999331
 O         1.891675        -0.085385         0.888451
 C        -0.762897         2.258710         1.751673
 H         2.582654         2.508489         1.861014
 H         1.212705         0.302495         3.476127
 H        -0.149484         1.293527         3.984661
 H        -0.614809        -1.030426         2.435740
 H        -2.376689         0.765577         1.431407
 H        -0.844197        -0.337638        -0.341288
 H        -0.427882         1.325298        -0.703892
 H         1.813156        -1.039759         0.768037
 H        -0.813585         3.018794         0.947411
 H        -1.101864         2.781360         2.657010
