19
Iteration:   861charge 0 multiplicity 1
 O         1.735331         2.687688         1.699956
 C         0.662006         1.767764         1.907408
 C         0.393756         0.832589         3.197920
 C        -0.323183        -0.025995         2.167620
 C        -1.353626         0.954232         1.352233
 C        -0.592133         0.502732        -0.010818
 C         0.587921         0.489700         1.063300
 O         1.933430        -0.032483         0.918304
 C        -0.761813         2.358748         1.692982
 H         1.879154         2.781515         0.742994
 H         1.246631         0.183682         3.527640
 H        -0.159378         1.373713         3.928366
 H        -0.793623        -0.986305         2.294964
 H        -2.310353         0.795108         1.507921
 H        -0.694863        -0.473181        -0.446506
 H        -0.624566         1.198344        -0.794466
 H         1.898635        -0.411526        -0.019692
 H        -0.837488         3.015554         0.886083
 H        -1.068060         2.879131         2.559937
