19
Iteration:  2440charge 0 multiplicity 1
 O         1.689492         2.885958         1.955937
 C         0.700422         1.891736         1.860293
 C         0.536642         1.123118         3.097017
 C        -0.358562         0.154305         2.236698
 C        -1.322837         0.881978         1.280920
 C        -0.600679         0.254780        -0.000073
 C         0.647773         0.339842         0.962661
 O         1.825912        -0.424033         0.862583
 C        -0.820206         2.356805         1.558442
 H         1.307477         3.548919         1.360009
 H         1.511656         0.665785         3.368814
 H         0.111815         1.761700         3.866867
 H        -0.609595        -0.932189         2.670947
 H        -2.382583         0.744926         1.397764
 H        -0.990914        -0.732944        -0.145520
 H        -0.433935         0.833982        -0.862498
 H         2.514446         0.280214         0.576605
 H        -0.892405         3.059584         0.735901
 H        -1.186862         2.730848         2.504357
