19
Iteration:  4245
 O         1.747844         2.634112         1.651516
 C         0.625662         1.871256         1.808341
 C         0.324460         1.104225         3.119789
 C        -0.388273         0.092048         2.296448
 C        -1.339361         0.922172         1.349814
 C        -0.564462         0.281796         0.151332
 C         0.637416         0.351509         1.117993
 O         1.965907        -0.179829         0.848296
 C        -0.782564         2.393317         1.466987
 H         1.665301         3.303601         2.350533
 H         1.287600         0.622549         3.342880
 H        -0.095617         1.705431         3.961738
 H        -0.675337        -0.843004         2.663286
 H        -2.381018         0.804271         1.531643
 H        -0.831160        -0.744254        -0.053659
 H        -0.469224         0.655691        -0.908620
 H         2.576100         0.486744         1.170795
 H        -0.878522         2.876785         0.417353
 H        -1.183984         3.050332         2.305733
