19
Iteration:  1924charge 0 multiplicity 1
 O         1.675549         2.812574         1.729584
 C         0.589743         1.818996         1.920635
 C         0.506964         0.852909         3.222210
 C        -0.308502        -0.054525         2.193714
 C        -1.354641         0.906453         1.312087
 C        -0.557858         0.507512         0.050920
 C         0.652315         0.440030         1.064760
 O         1.871714        -0.129968         0.902336
 C        -0.753211         2.364089         1.574415
 H         1.881296         2.966604         0.786939
 H         1.494319         0.437886         3.403781
 H         0.096208         1.191336         4.199537
 H        -0.711826        -1.028633         2.363729
 H        -2.523168         0.897188         1.303784
 H        -0.880759        -0.410136        -0.314159
 H        -0.485123         1.264795        -0.740294
 H         1.776302        -0.890226         0.401959
 H        -0.857991         2.959516         0.662557
 H        -1.253579         3.060720         2.282738
