19
Iteration:   680
 O         1.772242         2.640720         1.861383
 C         0.687618         1.800064         1.890407
 C         0.382779         0.985838         3.206610
 C        -0.453794        -0.008005         2.290771
 C        -1.363374         0.879760         1.382045
 C        -0.584438         0.434080         0.104516
 C         0.665019         0.404511         1.070873
 O         1.877833         0.002397         0.526355
 C        -0.698878         2.307437         1.529351
 H         1.578073         3.543272         1.555775
 H         1.322279         0.444385         3.417430
 H         0.067152         1.587790         4.075703
 H        -0.948554        -0.899136         2.749637
 H        -2.607515         0.633665         1.503182
 H        -0.980517        -0.537157        -0.165457
 H        -0.569472         1.104167        -0.716426
 H         2.385219        -0.159657         1.314933
 H        -0.513148         2.830039         0.513567
 H        -1.163045         2.907195         2.359643
