19
Iteration:  3946
 O         1.785710         2.567483         1.621202
 C         0.596309         1.840651         1.847081
 C         0.381662         1.067862         3.145550
 C        -0.334093         0.076762         2.261719
 C        -1.324398         0.893735         1.363973
 C        -0.537694         0.308070         0.119316
 C         0.581102         0.429173         1.133179
 O         1.841948        -0.064111         0.849470
 C        -0.754738         2.342962         1.454174
 H         1.936020         3.211582         2.326141
 H         1.309007         0.624150         3.553606
 H        -0.138329         1.576809         3.953429
 H        -0.717270        -0.887228         2.554064
 H        -2.385232         0.677299         1.464623
 H        -0.666449        -0.775715        -0.008611
 H        -0.410955         0.769677        -0.855529
 H         2.406411         0.642707         1.251430
 H        -0.844885         2.971452         0.556798
 H        -1.242855         3.008712         2.278006
