19
Iteration:   106
 O         1.587571         2.759128         1.800776
 C         0.564841         1.845330         1.895246
 C         0.601679         0.876849         3.090264
 C        -0.248892         0.025381         2.230366
 C        -1.296858         0.924692         1.277071
 C        -0.461353         0.626489        -0.027398
 C         0.602084         0.488290         1.033769
 O         1.803810        -0.337339         0.860537
 C        -0.898451         2.367731         1.670421
 H         2.104897         2.741660         2.601112
 H         1.700453         0.533992         3.220151
 H         0.208738         1.199306         4.100220
 H        -0.509605        -1.097831         2.323956
 H        -2.394667         0.448143         1.417617
 H        -0.688060        -0.447491        -0.444957
 H        -0.410111         1.500148        -0.691612
 H         2.251614        -0.204297         0.020108
 H        -0.984180         3.066846         0.810099
 H        -1.320507         3.043827         2.541158
