19
Iteration:  2484charge 0 multiplicity 1
 O         1.577834         2.899539         1.886525
 C         0.669162         1.874264         1.858875
 C         0.460960         1.057493         3.233217
 C        -0.263975         0.103090         2.201661
 C        -1.340513         0.907552         1.377410
 C        -0.576228         0.374898         0.082192
 C         0.683769         0.423580         1.017115
 O         1.793218        -0.419284         0.789509
 C        -0.694535         2.294850         1.443823
 H         1.593652         3.493334         1.124727
 H         1.365527         0.529070         3.621916
 H        -0.104725         1.515643         4.069100
 H        -0.688179        -0.962753         2.479105
 H        -2.402421         0.728679         1.554322
 H        -0.631605        -0.687732        -0.022049
 H        -0.768981         0.940713        -0.757769
 H         2.652693         0.001127         0.462211
 H        -0.563300         2.685534         0.424882
 H        -1.072148         3.031075         2.176819
