19
Iteration:  2134
 O         1.747611         2.878760         1.841697
 C         0.678020         1.903611         1.930969
 C         0.460696         0.971302         3.165795
 C        -0.351763         0.066079         2.203395
 C        -1.356691         0.963524         1.232760
 C        -0.570480         0.348658         0.042601
 C         0.662525         0.471817         1.043809
 O         1.798571        -0.345700         0.752694
 C        -0.760658         2.243339         1.599588
 H         1.364235         3.693228         1.457582
 H         1.305469         0.366977         3.605762
 H        -0.134395         1.405903         4.018536
 H        -0.468317        -1.035479         2.496325
 H        -2.415012         0.770735         1.404723
 H        -0.893993        -0.655594        -0.037623
 H        -0.523642         0.794660        -0.915258
 H         2.658047         0.155729         1.079118
 H        -0.905957         3.034797         0.802833
 H        -1.276808         2.708657         2.462119
