19
Iteration:  1869charge 0 multiplicity 1
 O         1.853721         2.515074         1.974725
 C         0.623571         1.840543         1.894659
 C         0.369404         1.055732         3.208842
 C        -0.260103         0.083190         2.238548
 C        -1.365520         0.841057         1.423249
 C        -0.554234         0.388897         0.131748
 C         0.627685         0.395872         1.074784
 O         1.830627         0.105051         0.643820
 C        -0.835987         2.353391         1.380760
 H         1.910353         2.885755         1.067872
 H         1.268571         0.503461         3.598678
 H        -0.231029         1.503936         4.017921
 H        -0.452439        -0.914808         2.637423
 H        -2.543992         0.658890         1.466380
 H        -0.804953        -0.568402        -0.294207
 H        -0.538878         1.012615        -0.794338
 H         2.012686        -0.752372         0.276216
 H        -0.915274         2.585212         0.316915
 H        -1.319725         3.058264         2.104995
