19
Iteration:   435
 O         1.578144         2.884717         1.628398
 C         0.765268         1.789787         1.983172
 C         0.495811         0.832271         3.225287
 C        -0.377457         0.063055         2.126565
 C        -1.321188         0.933014         1.245349
 C        -0.455856         0.573958        -0.014924
 C         0.621840         0.480676         1.053728
 O         1.794065        -0.178437         0.857788
 C        -0.781180         2.196537         1.774235
 H         2.456606         2.674489         1.960564
 H         1.259658         0.136371         3.441570
 H         0.141353         1.435449         4.072530
 H        -0.611488        -1.047330         2.326521
 H        -2.339050         0.876406         1.192756
 H        -0.813798        -0.384317        -0.254668
 H        -0.282253         1.249534        -0.785195
 H         1.652146        -0.669071         0.045454
 H        -0.961518         3.092904         1.243092
 H        -1.241945         2.305687         2.769792
