19
Iteration:  4441
 O         1.783981         2.562984         1.418711
 C         0.627735         1.814531         1.841640
 C         0.404302         1.076244         3.143843
 C        -0.389036         0.087922         2.253716
 C        -1.410475         0.870492         1.320961
 C        -0.566837         0.408119         0.078927
 C         0.636460         0.448051         1.113667
 O         1.963379        -0.097099         1.108629
 C        -0.831433         2.246728         1.525320
 H         1.842058         3.350802         1.982687
 H         1.289911         0.687765         3.657807
 H        -0.036393         1.699302         3.964973
 H        -0.434942        -0.936353         2.505443
 H        -2.559386         0.854075         1.246432
 H        -0.693110        -0.724650         0.076691
 H        -0.701116         1.022802        -0.823305
 H         2.607912         0.706703         1.223806
 H        -0.932364         2.966566         0.665553
 H        -1.399517         2.872425         2.233435
