19
Iteration:   464
 O         1.639096         2.748370         1.834520
 C         0.631502         1.825787         1.875035
 C         0.435737         0.899792         3.196087
 C        -0.256334         0.019390         2.185294
 C        -1.277894         0.895719         1.440412
 C        -0.552109         0.573605         0.068797
 C         0.621871         0.424787         1.038830
 O         1.886786        -0.226555         0.703609
 C        -0.845894         2.367300         1.555302
 H         2.314621         2.298897         2.381565
 H         1.410614         0.493391         3.559031
 H        -0.055940         1.546316         3.959984
 H        -0.665634        -1.061118         2.408301
 H        -2.367904         0.680578         1.528234
 H        -0.946911        -0.375420        -0.436946
 H        -0.496731         1.354781        -0.744430
 H         2.177919         0.132923        -0.116356
 H        -1.003548         2.964478         0.647748
 H        -1.277785         2.929873         2.401813
