19
Iteration:  2181
 O         1.890499         2.531146         1.914837
 C         0.580758         1.776353         1.889462
 C         0.307476         1.138473         3.228260
 C        -0.332370         0.025270         2.307707
 C        -1.372488         0.855801         1.308019
 C        -0.573188         0.354040         0.154433
 C         0.607868         0.366210         1.070788
 O         1.902896         0.072234         0.599268
 C        -0.793881         2.332702         1.457042
 H         2.096108         2.577609         0.955295
 H         1.370490         0.842374         3.661100
 H        -0.337720         1.653545         4.009851
 H        -0.665182        -1.006968         2.597011
 H        -2.447977         0.743145         1.295155
 H        -0.756715        -0.744207        -0.090173
 H        -0.676907         0.939639        -0.735698
 H         2.458277         0.681506         1.146062
 H        -0.850131         2.823355         0.411191
 H        -1.383303         3.037120         2.053722
