19
Iteration:  4476
 O         1.682364         2.683888         1.562170
 C         0.582347         1.872587         1.878330
 C         0.428799         1.114518         3.194973
 C        -0.297367         0.096087         2.346090
 C        -1.323734         0.922610         1.303108
 C        -0.465766         0.340074         0.113381
 C         0.622035         0.359389         1.109118
 O         1.854122        -0.260385         0.972437
 C        -0.823029         2.357728         1.416190
 H         1.684428         3.383408         2.232477
 H         1.508948         0.753695         3.378826
 H        -0.173527         1.697847         3.943643
 H        -0.516779        -0.958796         2.591599
 H        -2.493708         0.859197         1.383169
 H        -0.581752        -0.719313        -0.169337
 H        -0.441421         0.852691        -0.898173
 H         2.492605         0.378971         0.555658
 H        -0.863710         2.732990         0.320927
 H        -1.294383         2.869933         2.288983
