19
Iteration:   139
 O         1.600125         2.927878         1.747582
 C         0.745608         1.772762         1.845152
 C         0.397258         0.835920         3.176073
 C        -0.407348         0.025298         2.150343
 C        -1.339182         0.913114         1.257707
 C        -0.545843         0.578242        -0.026781
 C         0.649294         0.496999         1.056782
 O         1.873996        -0.315031         0.838367
 C        -0.765950         2.277933         1.790198
 H         2.511099         2.568756         1.621897
 H         1.353025         0.347566         3.579347
 H        -0.178168         1.407250         3.958228
 H        -0.613025        -1.057675         2.433973
 H        -2.503171         0.672885         1.436918
 H        -0.603319        -0.532530        -0.440251
 H        -0.618979         1.260343        -0.901137
 H         2.593526         0.342074         0.488214
 H        -0.672730         3.128774         1.097187
 H        -1.083340         2.646701         2.869631
