19
Iteration:  1274
 O         1.818959         2.595346         1.850310
 C         0.616620         1.877779         1.926604
 C         0.434269         1.059710         3.213143
 C        -0.292154         0.036803         2.325415
 C        -1.307560         0.847931         1.316504
 C        -0.539950         0.501206         0.080703
 C         0.568043         0.471628         1.073278
 O         1.846243        -0.114961         0.640201
 C        -0.869779         2.247427         1.510777
 H         1.941524         2.862969         2.774638
 H         1.553593         0.821727         3.469474
 H        -0.225956         1.586543         3.952883
 H        -0.528907        -1.057014         2.623762
 H        -2.488797         0.734311         1.338608
 H        -0.815285        -0.415301        -0.522331
 H        -0.242679         1.149449        -0.767320
 H         1.660393        -0.108043        -0.380398
 H        -0.776359         2.760669         0.566311
 H        -1.443973         2.856784         2.256444
