19
Iteration:   423
 O         1.552465         2.881782         1.649021
 C         0.653080         1.763013         1.867563
 C         0.518076         0.784030         3.188131
 C        -0.402145         0.053105         2.183000
 C        -1.318227         0.967127         1.247105
 C        -0.467922         0.594507        -0.011674
 C         0.642723         0.484707         1.033712
 O         1.896444        -0.202737         0.885618
 C        -0.789788         2.310598         1.847986
 H         2.493597         2.597141         1.555909
 H         1.354042         0.193616         3.483156
 H         0.042988         1.153016         4.128789
 H        -0.792531        -1.076444         2.133310
 H        -2.322275         0.763424         1.287814
 H        -0.595366        -0.351224        -0.478437
 H        -0.461863         1.215377        -0.828160
 H         1.755797        -1.092530         0.360780
 H        -0.892238         3.134462         1.208098
 H        -1.212026         2.519461         2.839971
