19
Iteration:  3586charge 0 multiplicity 1
 O         1.832280         2.622285         1.739061
 C         0.621053         1.823076         1.898514
 C         0.379371         1.099783         3.208725
 C        -0.414517         0.000351         2.384134
 C        -1.325294         0.880289         1.287306
 C        -0.558120         0.419313         0.117224
 C         0.645825         0.409702         1.154313
 O         1.833146        -0.121740         0.693079
 C        -0.759093         2.307504         1.390216
 H         1.722194         3.567849         1.702523
 H         1.377747         0.495777         3.488023
 H        -0.055570         1.520640         4.160806
 H        -0.480747        -1.004895         2.752262
 H        -2.483308         0.905157         1.404874
 H        -0.872231        -0.585585        -0.197445
 H        -0.636695         1.180689        -0.617260
 H         2.518804         0.548674         1.047093
 H        -0.855574         2.681415         0.395054
 H        -1.363146         2.783365         2.174085
