19
Iteration:  3384charge 0 multiplicity 1
 O         1.711194         2.677631         1.623517
 C         0.591571         1.879958         1.925820
 C         0.422767         0.957420         3.172628
 C        -0.357741         0.101446         2.238066
 C        -1.280985         0.898643         1.315712
 C        -0.564648         0.452569         0.115102
 C         0.635274         0.358945         1.052970
 O         1.862666        -0.255185         0.884204
 C        -0.748098         2.402406         1.544863
 H         1.490612         3.309818         0.931894
 H         1.374574         0.491872         3.495005
 H        -0.213459         1.507795         4.038549
 H        -0.502774        -0.982822         2.450439
 H        -2.303663         0.859320         1.564819
 H        -0.785220        -0.543867        -0.281676
 H        -0.398103         1.168504        -0.741368
 H         2.475099         0.374074         1.384456
 H        -0.816184         3.139504         0.719301
 H        -1.293791         2.681499         2.445824
