19
Iteration:  1206charge 0 multiplicity 1
 O         1.684998         2.662738         1.681610
 C         0.605299         1.793093         1.887829
 C         0.533974         0.883115         3.206928
 C        -0.367504         0.019737         2.256672
 C        -1.382183         0.927892         1.350188
 C        -0.483103         0.575134         0.029175
 C         0.623150         0.472581         1.036328
 O         1.826776        -0.180998         0.773716
 C        -0.781075         2.286429         1.658207
 H         1.390101         3.564437         1.884696
 H         1.457688         0.361239         3.337374
 H         0.095355         1.490258         4.040400
 H        -0.587841        -0.957885         2.358775
 H        -2.410367         0.719812         1.535813
 H        -0.796709        -0.319755        -0.524292
 H        -0.403317         1.377357        -0.752828
 H         2.638772         0.184239         1.064105
 H        -0.732042         2.898961         0.731491
 H        -1.239831         2.858876         2.446435
