19
Iteration:  4569charge 0 multiplicity 1
 O         1.766342         2.662432         1.485116
 C         0.701543         1.847903         1.868244
 C         0.372495         1.098212         3.210010
 C        -0.376114         0.114930         2.297699
 C        -1.337096         0.827890         1.269956
 C        -0.494241         0.261896         0.163685
 C         0.482485         0.423454         1.163508
 O         1.845529        -0.074358         0.999570
 C        -0.794146         2.313876         1.416095
 H         2.430807         2.680256         2.196063
 H         1.265929         0.585113         3.467446
 H        -0.139303         1.631889         4.002450
 H        -0.360987        -0.942129         2.607458
 H        -2.452118         0.797215         1.329531
 H        -0.610280        -0.796763        -0.301426
 H        -0.378116         0.855139        -0.763154
 H         2.334337         0.774106         0.738824
 H        -0.771969         2.884860         0.523832
 H        -1.188018         2.851957         2.285424
