19
Iteration:     4
 O         1.759836         2.619624         1.727401
 C         0.640524         1.814235         1.899683
 C         0.421024         0.911893         3.168952
 C        -0.335736         0.012900         2.193273
 C        -1.377716         0.870369         1.333046
 C        -0.568211         0.506430         0.044769
 C         0.577568         0.454220         1.052633
 O         1.859122        -0.061127         0.755341
 C        -0.788062         2.304393         1.638646
 H         1.994504         3.046207         2.571521
 H         1.431249         0.520251         3.399741
 H        -0.063768         1.413188         4.053282
 H        -0.562032        -0.994984         2.436203
 H        -2.359809         0.714435         1.385753
 H        -0.748884        -0.454121        -0.397433
 H        -0.503990         1.275891        -0.770253
 H         2.543218         0.669487         0.898711
 H        -0.721296         2.968173         0.719802
 H        -1.163785         2.796083         2.513413
