19
Iteration:  4436charge 0 multiplicity 1
 O         1.752012         2.526213         1.424759
 C         0.612221         1.849652         1.792851
 C         0.418222         1.074254         3.221190
 C        -0.366743         0.064662         2.254692
 C        -1.405201         0.887754         1.336492
 C        -0.531612         0.390421         0.076274
 C         0.637308         0.524801         1.151261
 O         1.954580        -0.108953         1.085484
 C        -0.841573         2.289396         1.483902
 H         2.013854         3.361296         1.874409
 H         1.313446         0.530256         3.574452
 H        -0.193314         1.513089         4.009543
 H        -0.426097        -1.020080         2.568836
 H        -2.455729         0.852682         1.342629
 H        -0.755054        -0.694113        -0.107313
 H        -0.650486         0.853899        -0.925951
 H         2.404180         0.709637         1.264014
 H        -0.824336         2.918552         0.608570
 H        -1.414788         2.710642         2.335904
