19
Iteration:  4602
 O         1.654632         2.634036         1.511044
 C         0.607317         1.818336         1.843400
 C         0.301582         1.169228         3.103623
 C        -0.341040         0.092555         2.301157
 C        -1.367122         0.912019         1.390137
 C        -0.561040         0.391873         0.143714
 C         0.623547         0.382624         1.141502
 O         2.086642        -0.209655         1.006021
 C        -0.834968         2.337281         1.444311
 H         2.481500         2.287178         1.930709
 H         1.115598         0.783975         3.670241
 H        -0.048205         1.743688         4.000276
 H        -0.548581        -0.961510         2.598153
 H        -2.439313         0.559308         1.081066
 H        -0.840744        -0.750266        -0.071023
 H        -0.462685         1.128634        -0.722566
 H         2.570109         0.570000         0.610148
 H        -0.939286         2.944993         0.572493
 H        -1.303001         3.043040         2.157436
