19
Iteration:   774
 O         1.607317         2.786868         1.883359
 C         0.680830         1.810763         1.934020
 C         0.463735         0.893103         3.255788
 C        -0.262761         0.035434         2.227458
 C        -1.328837         0.963024         1.371937
 C        -0.568847         0.508844         0.072562
 C         0.589578         0.439414         1.004752
 O         1.840953        -0.207026         0.612082
 C        -0.702550         2.328689         1.564966
 H         1.510254         3.257274         1.026901
 H         1.403502         0.312161         3.553613
 H         0.056184         1.436518         4.099388
 H        -0.590584        -0.973431         2.285713
 H        -2.280518         0.826131         1.500325
 H        -0.781147        -0.495094        -0.342700
 H        -0.313996         1.210494        -0.805281
 H         1.720234        -1.068233         1.176478
 H        -0.623067         2.866246         0.641810
 H        -1.141798         2.994565         2.275589
