19
Iteration:  3194charge 0 multiplicity 1
 O         1.698244         2.632985         1.782431
 C         0.568053         1.842851         1.924405
 C         0.448932         1.089262         3.186991
 C        -0.377937         0.096590         2.290406
 C        -1.360135         0.915566         1.352881
 C        -0.487779         0.339284         0.037858
 C         0.607024         0.355485         1.114351
 O         1.902150        -0.194846         0.796086
 C        -0.738297         2.411255         1.497057
 H         1.577441         3.246593         1.017164
 H         1.353001         0.392679         3.247937
 H         0.096655         1.728710         4.063757
 H        -0.599435        -0.917670         2.564305
 H        -2.429910         0.485855         1.323544
 H        -0.857050        -0.696848        -0.236347
 H        -0.568106         0.945967        -0.867631
 H         2.267604         0.555204         0.357987
 H        -0.599498         3.037759         0.621790
 H        -1.178662         2.991385         2.328717
