19
Iteration:  4981
 O         1.666943         2.835814         1.692902
 C         0.635467         1.889460         1.791130
 C         0.401215         1.136371         3.184681
 C        -0.315780         0.107069         2.328338
 C        -1.337401         0.867226         1.334301
 C        -0.581279         0.266405         0.115030
 C         0.703188         0.400278         1.097811
 O         1.853622        -0.271290         0.980528
 C        -0.825398         2.292554         1.327416
 H         2.561421         2.485170         1.862006
 H         1.348416         0.679793         3.583403
 H        -0.035024         1.585633         4.072853
 H        -0.505573        -0.969914         2.463421
 H        -2.423560         0.689629         1.468838
 H        -0.949610        -0.669209        -0.252526
 H        -0.401263         1.034431        -0.679313
 H         2.546279         0.430378         0.746415
 H        -0.834527         2.591277         0.328412
 H        -1.217479         2.989820         2.005135
