19
Iteration:  1732
 O         1.732304         2.639832         1.806431
 C         0.628308         1.793640         1.973199
 C         0.439985         0.941929         3.196239
 C        -0.345074         0.079557         2.328081
 C        -1.347426         0.963736         1.308467
 C        -0.620118         0.334591         0.040560
 C         0.590089         0.439167         0.992269
 O         1.920819         0.087805         0.668828
 C        -0.773570         2.349606         1.556707
 H         2.366182         2.308254         2.466836
 H         1.328142         0.386612         3.309974
 H         0.057947         1.234917         4.192477
 H        -0.752986        -0.860761         2.724924
 H        -2.347755         0.719279         1.390315
 H        -0.884789        -0.647426        -0.175400
 H        -0.565270         0.793519        -0.882614
 H         1.804096        -0.814989         0.183202
 H        -0.493163         2.899217         0.597390
 H        -1.242697         2.920083         2.353597
