19
Iteration:  3790charge 0 multiplicity 1
 O         1.742233         2.710584         1.677610
 C         0.612913         1.906720         1.873985
 C         0.336191         1.070364         3.203171
 C        -0.325421         0.049568         2.285659
 C        -1.312691         0.915085         1.308562
 C        -0.524490         0.330667         0.113123
 C         0.643251         0.379297         1.137919
 O         1.813969        -0.118168         0.852079
 C        -0.757743         2.282676         1.454122
 H         2.508080         2.212710         1.977201
 H         1.226032         0.585428         3.685848
 H        -0.085528         1.738386         3.977954
 H        -0.538046        -1.011770         2.540457
 H        -2.403756         0.818417         1.513637
 H        -0.820688        -0.729671         0.025938
 H        -0.336223         0.957833        -0.774704
 H         2.121627         0.262497        -0.041254
 H        -0.638921         2.911015         0.474197
 H        -1.413840         2.957172         2.143631
