19
Iteration:  3346charge 0 multiplicity 1
 O         1.709285         2.749838         1.793604
 C         0.660502         1.821500         1.823692
 C         0.502540         1.065183         3.135746
 C        -0.363235         0.121351         2.282921
 C        -1.339494         0.894727         1.294622
 C        -0.549334         0.395819         0.074839
 C         0.592091         0.409946         1.045133
 O         1.803755        -0.292517         0.928792
 C        -0.718751         2.292645         1.508496
 H         1.484385         3.540525         1.274952
 H         1.387496         0.494264         3.444235
 H         0.143733         1.559540         3.971219
 H        -0.577856        -0.926953         2.422440
 H        -2.492832         0.761711         1.204655
 H        -0.808219        -0.635723        -0.290986
 H        -0.681487         1.116758        -0.773370
 H         2.408147         0.276656         0.512705
 H        -0.646609         3.141899         0.810010
 H        -1.251185         2.721813         2.403512
