19
Iteration:  2457charge 0 multiplicity 1
 O         1.662034         2.939083         2.002818
 C         0.619496         2.002074         1.831729
 C         0.607777         1.066878         3.068983
 C        -0.260494         0.095576         2.285363
 C        -1.298570         0.913593         1.275732
 C        -0.533016         0.341916         0.073655
 C         0.558312         0.236455         1.079443
 O         1.726694        -0.421179         0.824263
 C        -0.794961         2.286385         1.401919
 H         1.638344         3.800157         1.564779
 H         1.584149         0.591890         3.163045
 H         0.321520         1.277074         4.153761
 H        -0.559981        -0.852292         2.686766
 H        -2.387630         0.751092         1.406472
 H        -0.797135        -0.721417        -0.248486
 H        -0.592746         1.014644        -0.895001
 H         2.514601         0.190267         0.680091
 H        -0.789649         2.833281         0.399265
 H        -1.353753         2.898769         2.178031
