19
Iteration:  4478charge 0 multiplicity 1
 O         1.677680         2.689332         1.570581
 C         0.578782         1.861029         1.883155
 C         0.435693         1.131797         3.198607
 C        -0.294898         0.089459         2.333041
 C        -1.331384         0.920335         1.288389
 C        -0.467923         0.337170         0.134446
 C         0.636723         0.388390         1.106973
 O         1.847775        -0.281604         0.961263
 C        -0.825956         2.355737         1.417937
 H         1.740004         3.420308         2.227151
 H         1.480720         0.760780         3.391120
 H        -0.148098         1.685771         3.967180
 H        -0.557673        -0.971568         2.607704
 H        -2.423826         0.798026         1.352429
 H        -0.591332        -0.649065        -0.145256
 H        -0.431134         0.795214        -0.871841
 H         2.485657         0.397091         0.530438
 H        -0.819056         2.682844         0.362385
 H        -1.331817         2.932311         2.234114
