19
Iteration:   920
 O         1.716956         2.766889         1.814739
 C         0.627675         1.821782         1.938574
 C         0.444548         0.975376         3.158659
 C        -0.204948         0.002499         2.139985
 C        -1.308342         0.893871         1.340985
 C        -0.600628         0.571683         0.026944
 C         0.612369         0.474581         1.016300
 O         1.801085        -0.220880         0.679795
 C        -0.803798         2.260304         1.631337
 H         2.228592         2.905622         2.625425
 H         1.397302         0.531372         3.534290
 H        -0.021696         1.366751         4.142847
 H        -0.607380        -1.020446         2.329143
 H        -2.487362         0.701683         1.463711
 H        -0.917512        -0.430897        -0.415839
 H        -0.541967         1.543235        -0.660508
 H         2.038493        -0.650157         1.459086
 H        -0.877912         2.770358         0.600906
 H        -1.116478         2.937998         2.476560
