19
Iteration:  4117charge 0 multiplicity 1
 O         1.673528         2.461937         1.533560
 C         0.520830         1.762245         1.869755
 C         0.337517         1.174881         3.169113
 C        -0.274032         0.086322         2.337034
 C        -1.287662         0.944723         1.337793
 C        -0.571917         0.401135         0.020004
 C         0.693820         0.381353         1.130937
 O         1.947525        -0.066520         0.916966
 C        -0.815946         2.303446         1.501455
 H         2.097491         2.683768         2.387522
 H         1.329115         0.775184         3.572074
 H        -0.270075         1.611210         3.913962
 H        -0.655213        -0.786119         2.731365
 H        -2.411471         0.882178         1.360460
 H        -0.760018        -0.622333        -0.180834
 H        -0.408490         1.171383        -0.788669
 H         2.418279         0.875958         0.999458
 H        -0.822439         2.930360         0.612660
 H        -1.100872         2.880771         2.295998
