19
Iteration:  3193
 O         1.703364         2.643469         1.785955
 C         0.567851         1.848959         1.924814
 C         0.443349         1.081975         3.186024
 C        -0.376750         0.087752         2.291170
 C        -1.363099         0.921615         1.359562
 C        -0.489261         0.328779         0.039001
 C         0.612102         0.351890         1.104589
 O         1.895589        -0.187353         0.800274
 C        -0.736889         2.407578         1.486129
 H         1.593333         3.243935         1.014558
 H         1.358652         0.401619         3.282343
 H         0.121183         1.709786         4.042789
 H        -0.614179        -0.934544         2.560540
 H        -2.394920         0.510552         1.308709
 H        -0.880260        -0.697825        -0.213010
 H        -0.599029         0.952152        -0.894731
 H         2.266103         0.527519         0.365033
 H        -0.596481         3.060425         0.644324
 H        -1.139014         2.969776         2.339130
