19
Iteration:  2158charge 0 multiplicity 1
 O         1.711057         2.649204         1.956471
 C         0.593686         1.791575         1.835728
 C         0.422180         1.029472         3.164464
 C        -0.334512         0.070664         2.294620
 C        -1.328684         0.875740         1.387854
 C        -0.574190         0.360095         0.113128
 C         0.618384         0.409406         1.047070
 O         1.845531        -0.104930         0.660207
 C        -0.679731         2.359268         1.396198
 H         1.515512         3.375567         1.337730
 H         1.455773         0.686792         3.610153
 H        -0.257980         1.487428         3.951083
 H        -0.573668        -1.002632         2.619770
 H        -2.321134         0.618738         1.636604
 H        -0.858026        -0.620278        -0.334936
 H        -0.595466         1.076279        -0.667232
 H         2.509347         0.329000         1.235747
 H        -0.747855         2.817786         0.339864
 H        -1.051567         3.152183         2.051526
