19
Iteration:   119
 O         1.615028         2.849560         1.733947
 C         0.597544         1.889719         1.956850
 C         0.560198         0.902611         3.166391
 C        -0.244407         0.018921         2.093579
 C        -1.291975         0.942058         1.288288
 C        -0.463242         0.601418         0.004510
 C         0.643409         0.390440         0.976965
 O         1.749997        -0.328390         0.905554
 C        -0.876581         2.299688         1.715858
 H         2.347964         2.588887         2.359002
 H         1.535400         0.393340         3.258777
 H         0.159580         1.173543         4.145628
 H        -0.596366        -0.944308         2.341821
 H        -2.476978         0.791184         1.241670
 H        -0.866751        -0.302290        -0.532810
 H        -0.277239         1.289616        -0.824596
 H         2.261801         0.071337         0.150274
 H        -1.017236         3.085884         1.012747
 H        -1.430809         2.369273         2.701897
