19
Iteration:  1893
 O         1.796413         2.584405         1.858056
 C         0.635826         1.794343         1.831047
 C         0.345708         1.096550         3.249061
 C        -0.419508         0.026971         2.283202
 C        -1.351987         0.861171         1.271960
 C        -0.586668         0.365919         0.079478
 C         0.704410         0.462394         1.031889
 O         1.932427         0.057156         0.678135
 C        -0.753115         2.310953         1.662094
 H         1.938434         2.921122         0.958931
 H         1.280619         0.716451         3.630587
 H        -0.166634         1.765511         4.046690
 H        -0.779885        -0.881453         2.659388
 H        -2.468384         0.772585         1.172645
 H        -0.901836        -0.699920        -0.248039
 H        -0.592745         0.867180        -0.960566
 H         1.917354        -0.944927         0.361397
 H        -0.924692         3.041601         0.837142
 H        -1.263872         2.555323         2.577922
