19
Iteration:  1903charge 0 multiplicity 1
 O         1.728625         2.657373         1.796847
 C         0.671638         1.763981         1.916682
 C         0.354634         1.028500         3.164012
 C        -0.419496         0.114690         2.224962
 C        -1.333069         0.908415         1.325454
 C        -0.512908         0.378487         0.078946
 C         0.640194         0.411471         1.009724
 O         1.966808        -0.007505         0.738696
 C        -0.786873         2.307712         1.665817
 H         1.832236         2.876293         0.855344
 H         1.078408         0.352258         3.576801
 H        -0.143408         1.593945         4.001269
 H        -0.656871        -0.878352         2.494379
 H        -2.475589         0.843655         1.321676
 H        -0.799083        -0.664766         0.006117
 H        -0.625683         0.990436        -0.840326
 H         1.995258        -0.927934         0.311846
 H        -1.068171         3.103515         0.963766
 H        -1.038603         2.752691         2.631178
