19
Iteration:   796charge 0 multiplicity 1
 O         1.746425         2.811691         1.981672
 C         0.727361         1.859034         1.931734
 C         0.358079         0.952707         3.133577
 C        -0.335541         0.004950         2.205885
 C        -1.334211         0.945582         1.364603
 C        -0.609112         0.386109         0.123478
 C         0.678817         0.409825         1.031477
 O         1.802723        -0.228428         0.518762
 C        -0.703608         2.336047         1.580814
 H         1.546571         3.527354         1.361869
 H         1.303135         0.454182         3.553506
 H        -0.184701         1.474613         3.939432
 H        -0.678702        -0.943617         2.529421
 H        -2.318932         0.884051         1.382560
 H        -0.915710        -0.664799        -0.030114
 H        -0.872319         0.939547        -0.850914
 H         2.482498        -0.178513         1.163960
 H        -0.721690         2.914782         0.681716
 H        -1.217513         2.917831         2.315105
