19
Iteration:  2348
 O         1.837686         2.672639         1.772171
 C         0.612149         1.867758         1.895554
 C         0.371426         1.033697         3.207934
 C        -0.334798         0.051354         2.216376
 C        -1.389394         0.890754         1.296594
 C        -0.605127         0.262420         0.069660
 C         0.629840         0.485797         1.022567
 O         1.888651        -0.142054         0.854130
 C        -0.759348         2.364959         1.531160
 H         1.710186         3.243573         0.982752
 H         1.345772         0.624318         3.428096
 H        -0.304721         1.387298         4.009415
 H        -0.568505        -0.936563         2.524728
 H        -2.506498         0.745488         1.380068
 H        -0.872948        -0.785091         0.010495
 H        -0.575343         0.666891        -0.866025
 H         2.555770         0.588008         1.030386
 H        -0.930295         3.040680         0.650876
 H        -1.180481         2.842395         2.467440
