19
Iteration:   517
 O         1.783769         2.671657         1.796229
 C         0.649062         1.809640         1.949341
 C         0.370544         0.874620         3.212936
 C        -0.376130         0.111857         2.238106
 C        -1.369891         0.933322         1.334016
 C        -0.572775         0.352127         0.146116
 C         0.580351         0.461204         1.033158
 O         1.874480        -0.017548         0.540910
 C        -0.726023         2.286672         1.591238
 H         2.136047         2.725068         2.708483
 H         1.365820         0.382499         3.402319
 H        -0.045451         1.307819         4.139527
 H        -0.733942        -0.879926         2.543571
 H        -2.552989         0.939388         1.270401
 H        -0.785365        -0.783853         0.040437
 H        -0.561442         0.831321        -0.925248
 H         2.422456         0.679136         0.819288
 H        -0.599973         2.918288         0.656294
 H        -1.253590         2.853421         2.394589
