19
Iteration:   938
 O         1.753816         2.798253         1.930863
 C         0.689414         1.800897         1.900106
 C         0.421394         0.933826         3.143828
 C        -0.330804         0.070404         2.206219
 C        -1.368830         0.898101         1.405196
 C        -0.580746         0.420223         0.043401
 C         0.644888         0.475789         0.973791
 O         1.812441        -0.220301         0.549783
 C        -0.721499         2.354023         1.569638
 H         1.674446         3.143339         2.835318
 H         1.219170         0.484496         3.780598
 H        -0.194247         1.435595         3.914397
 H        -0.448996        -1.054093         2.277889
 H        -2.417749         0.766650         1.424702
 H        -0.862918        -0.629054        -0.040316
 H        -0.940331         1.015464        -0.771180
 H         2.377048        -0.252555         1.278827
 H        -0.785716         3.014455         0.728150
 H        -1.136373         2.782249         2.474069
