19
Iteration:  1179charge 0 multiplicity 1
 O         1.792363         2.616605         1.548954
 C         0.581243         1.891619         1.878570
 C         0.490667         0.897060         3.193107
 C        -0.358674         0.038387         2.261698
 C        -1.332471         0.878512         1.235733
 C        -0.447284         0.672800         0.023693
 C         0.592751         0.440946         1.058482
 O         1.853197        -0.217071         0.831640
 C        -0.919663         2.292110         1.834802
 H         1.595276         3.511610         1.236248
 H         1.468446         0.425179         3.494023
 H        -0.006361         1.381353         3.990789
 H        -0.610884        -1.152924         2.381033
 H        -2.394414         0.488709         1.361602
 H        -0.702354        -0.135803        -0.683054
 H        -0.306960         1.512349        -0.635542
 H         2.561709         0.066849         1.377503
 H        -1.191254         3.152823         1.221419
 H        -1.433086         2.403716         2.840209
