19
Iteration:  2256
 O         1.628568         2.882593         1.833789
 C         0.690742         1.856811         1.836812
 C         0.533946         0.978347         3.132973
 C        -0.299868         0.046178         2.186081
 C        -1.355779         0.849367         1.310537
 C        -0.518333         0.512584         0.044505
 C         0.649478         0.443147         1.053179
 O         1.778794        -0.363033         0.994086
 C        -0.764065         2.282054         1.529842
 H         1.377816         3.506526         1.133103
 H         1.537077         0.528681         3.321469
 H        -0.020322         1.486551         3.914552
 H        -0.607949        -1.040231         2.313614
 H        -2.405503         0.659914         1.289997
 H        -0.941443        -0.437896        -0.301572
 H        -0.467240         1.174045        -0.792164
 H         2.344641        -0.178405         0.292070
 H        -0.804175         2.921745         0.591757
 H        -1.178734         2.831077         2.394489
