19
Iteration:  4881charge 0 multiplicity 1
 O         1.762459         2.790740         1.704515
 C         0.656534         1.882474         1.824248
 C         0.391189         1.162925         3.109511
 C        -0.382971         0.098537         2.337825
 C        -1.346554         0.815359         1.325244
 C        -0.549271         0.302650         0.061035
 C         0.641284         0.377789         1.062703
 O         1.896761        -0.255048         0.958243
 C        -0.811718         2.296282         1.494047
 H         1.923191         2.810101         0.736446
 H         1.347007         0.835124         3.676127
 H        -0.042609         1.662139         4.000256
 H        -0.542394        -1.018064         2.760620
 H        -2.447899         0.673866         1.198883
 H        -0.989990        -0.682999        -0.352156
 H        -0.474892         0.992726        -0.912418
 H         2.469911         0.504077         1.343630
 H        -1.131056         2.912312         0.618076
 H        -1.251741         2.893579         2.270722
