19
Iteration:  1392
 O         1.795651         2.700365         1.902805
 C         0.672466         1.769935         1.949312
 C         0.240806         1.021518         3.205768
 C        -0.342391        -0.030762         2.248555
 C        -1.292730         0.941780         1.404079
 C        -0.629456         0.368328         0.144936
 C         0.675068         0.406903         1.057907
 O         1.873321        -0.063307         0.513094
 C        -0.659306         2.414593         1.484341
 H         1.443814         3.607005         1.817389
 H         1.151101         0.606295         3.747220
 H        -0.495563         1.627752         3.757258
 H        -0.733297        -1.040189         2.361241
 H        -2.453211         0.725114         1.527325
 H        -0.649386        -0.816546         0.137179
 H        -0.593458         0.776442        -1.011357
 H         1.932552        -0.946664         0.775200
 H        -0.562868         2.925585         0.509525
 H        -1.120971         3.030037         2.297793
