19
Iteration:  2471charge 0 multiplicity 1
 O         1.632841         2.954505         1.972911
 C         0.648887         1.902266         1.926954
 C         0.550784         1.009622         3.111672
 C        -0.273363         0.063860         2.287660
 C        -1.324080         0.862749         1.359266
 C        -0.564163         0.352412         0.106016
 C         0.638853         0.397467         1.031644
 O         1.758039        -0.465179         0.793671
 C        -0.758647         2.392727         1.343139
 H         1.288500         3.457938         1.204979
 H         1.570483         0.616221         3.277678
 H         0.194951         1.580731         4.040056
 H        -0.404703        -1.122034         2.523984
 H        -2.375340         0.731315         1.403038
 H        -0.936800        -0.574311        -0.245296
 H        -0.394974         0.975572        -0.728049
 H         2.464327         0.137195         0.632955
 H        -0.721539         2.754412         0.285636
 H        -1.376406         3.224576         1.872268
