19
Iteration:   244charge 0 multiplicity 1
 O         1.671473         2.755185         1.814004
 C         0.665235         1.757737         2.016103
 C         0.433766         0.866587         3.201568
 C        -0.361004        -0.039862         2.111795
 C        -1.343563         0.879839         1.324874
 C        -0.491652         0.667732         0.054816
 C         0.620505         0.484502         1.063269
 O         1.792306        -0.214746         0.749765
 C        -0.695870         2.258575         1.602614
 H         1.337655         3.579518         1.384287
 H         1.381671         0.352368         3.468031
 H        -0.001413         1.258001         4.110363
 H        -0.647524        -1.175755         2.320019
 H        -2.432209         0.762904         1.401405
 H        -0.503857        -0.342281        -0.318032
 H        -0.529068         1.472007        -0.684161
 H         2.393306         0.481975         0.355489
 H        -0.597502         2.906457         0.700691
 H        -1.167107         2.938101         2.261767
