19
Iteration:   318
 O         1.738126         2.698979         1.975676
 C         0.674735         1.775205         1.990495
 C         0.414507         0.926643         3.215600
 C        -0.335398         0.011265         2.193448
 C        -1.345843         0.823659         1.355087
 C        -0.568179         0.543027         0.074178
 C         0.633314         0.477892         1.044322
 O         1.813485         0.015073         0.565883
 C        -0.731785         2.235681         1.500955
 H         2.129211         2.603572         1.094193
 H         1.343497         0.521577         3.600880
 H        -0.252761         1.451366         3.894493
 H        -0.759892        -0.890188         2.268198
 H        -2.413767         0.760809         1.466971
 H        -0.865951        -0.443003        -0.236809
 H        -0.626524         1.405409        -0.669594
 H         2.246191        -0.696857         1.178672
 H        -0.810834         2.790046         0.518172
 H        -1.123832         2.948729         2.248577
