19
Iteration:  4458
 O         1.762542         2.666510         1.508115
 C         0.642427         1.803143         1.720300
 C         0.407013         1.124592         3.174738
 C        -0.380044         0.081976         2.281290
 C        -1.351748         0.850042         1.331454
 C        -0.561044         0.317725         0.068679
 C         0.616904         0.384854         1.107886
 O         1.920189        -0.131264         1.101005
 C        -0.793114         2.320271         1.515448
 H         1.792172         3.436495         2.078149
 H         1.259275         0.556522         3.506393
 H        -0.170915         1.622498         3.948849
 H        -0.822467        -0.855307         2.707800
 H        -2.334935         0.569204         1.456873
 H        -1.002389        -0.520309        -0.425006
 H        -0.417260         1.014843        -0.770577
 H         2.396113         0.693869         0.803397
 H        -0.860180         2.923027         0.620642
 H        -1.137413         2.785572         2.441655
