19
Iteration:   566charge 0 multiplicity 1
 O         1.835400         2.601010         1.610999
 C         0.702549         1.814300         1.944071
 C         0.431206         0.908307         3.165170
 C        -0.338616        -0.026085         2.123285
 C        -1.368339         0.824057         1.306115
 C        -0.573952         0.636286         0.003029
 C         0.619773         0.567963         1.025503
 O         1.816569        -0.156125         0.917779
 C        -0.867576         2.281888         1.790820
 H         1.614648         3.483113         1.250910
 H         1.355737         0.446912         3.529911
 H        -0.109765         1.346811         4.027192
 H        -0.402413        -1.153162         2.179029
 H        -2.413468         0.751163         1.386710
 H        -0.745328        -0.328064        -0.428097
 H        -0.673710         1.459884        -0.694080
 H         2.541067         0.559843         0.687232
 H        -1.030667         3.054463         1.058826
 H        -1.239554         2.560864         2.760745
