19
Iteration:   479
 O         1.726134         2.716840         1.968170
 C         0.613427         1.843968         1.894239
 C         0.404234         1.027922         3.127962
 C        -0.248097         0.027445         2.216221
 C        -1.369146         0.896773         1.404694
 C        -0.658671         0.453520         0.106364
 C         0.645054         0.388804         0.924801
 O         1.879805        -0.160962         0.650744
 C        -0.773916         2.329968         1.536320
 H         2.538175         2.234636         2.156168
 H         1.355902         0.662148         3.452908
 H        -0.262590         1.160892         3.975516
 H        -0.502346        -1.024697         2.480516
 H        -2.386032         0.769618         1.622980
 H        -0.975263        -0.487523        -0.200242
 H        -0.689120         1.175069        -0.630486
 H         2.464277         0.578253         0.376652
 H        -0.836654         2.788561         0.565714
 H        -1.172546         3.019609         2.284234
