19
Iteration:  4387
 O         1.732214         2.723618         1.658019
 C         0.693022         1.753276         1.770870
 C         0.314946         1.176479         3.264048
 C        -0.384927         0.201604         2.316047
 C        -1.382846         0.826847         1.339588
 C        -0.585355         0.284973         0.127554
 C         0.713459         0.449155         1.085234
 O         1.930736        -0.264411         0.866352
 C        -0.747202         2.264820         1.429803
 H         1.555955         3.400015         2.313370
 H         1.303617         0.885923         3.593881
 H        -0.201880         1.869428         3.974681
 H        -0.637368        -0.701743         2.753279
 H        -2.482988         0.685262         1.284232
 H        -0.763613        -0.684166        -0.244566
 H        -0.682988         0.890778        -0.766735
 H         2.454204         0.528952         0.445418
 H        -0.797354         2.886925         0.497866
 H        -1.216606         2.783710         2.273011
