19
Iteration:  2777
 O         1.667553         2.826927         1.865624
 C         0.616032         1.891982         1.827979
 C         0.384727         1.110209         3.160300
 C        -0.309604         0.058022         2.276257
 C        -1.293669         0.851499         1.386596
 C        -0.529419         0.444216         0.081395
 C         0.671227         0.364906         1.054903
 O         1.873735        -0.261244         0.835011
 C        -0.758741         2.266438         1.461137
 H         2.320605         2.638492         1.159788
 H         1.376313         0.889456         3.605043
 H        -0.400144         1.575708         3.765549
 H        -0.525717        -1.043232         2.667932
 H        -2.363262         0.793412         1.332113
 H        -0.938241        -0.586545        -0.235415
 H        -0.520190         1.243649        -0.766785
 H         1.670586        -0.808295         0.136645
 H        -0.930231         2.744043         0.496883
 H        -1.127666         3.049360         2.172639
