19
Iteration:  2482
 O         1.580224         2.909846         1.898972
 C         0.661435         1.876430         1.874355
 C         0.477522         1.046145         3.221036
 C        -0.255845         0.091505         2.209923
 C        -1.352104         0.898475         1.386310
 C        -0.570732         0.371474         0.093680
 C         0.671635         0.428646         1.008704
 O         1.795920        -0.427312         0.787411
 C        -0.692571         2.316888         1.421201
 H         1.559377         3.500701         1.134207
 H         1.370936         0.519035         3.594660
 H        -0.033671         1.584200         4.098902
 H        -0.707842        -0.988180         2.478990
 H        -2.391750         0.704320         1.512623
 H        -0.673989        -0.685410        -0.085515
 H        -0.710593         0.954236        -0.798088
 H         2.605711        -0.060783         0.506166
 H        -0.588447         2.677711         0.369895
 H        -1.138363         3.106138         2.146244
