19
Iteration:  4215
 O         1.746622         2.834546         1.696393
 C         0.739470         1.911862         1.873148
 C         0.331838         1.174009         3.247533
 C        -0.265819         0.076899         2.325023
 C        -1.328740         0.840068         1.278176
 C        -0.487078         0.303153         0.053342
 C         0.628796         0.451579         1.148419
 O         1.677331        -0.338070         0.768806
 C        -0.739466         2.242319         1.434732
 H         1.730236         3.447216         2.479530
 H         1.233698         0.711036         3.732750
 H        -0.225346         1.696862         3.971316
 H        -0.451191        -0.921085         2.637321
 H        -2.431551         0.655085         1.476537
 H        -0.568393        -0.752816        -0.072183
 H        -0.379164         0.866823        -0.880498
 H         2.486139         0.260295         1.006063
 H        -0.775217         2.592302         0.378442
 H        -1.367746         2.888527         2.009950
