19
Iteration:   864charge 0 multiplicity 1
 O         1.714743         2.706399         1.682571
 C         0.643236         1.749517         1.914093
 C         0.411522         0.831648         3.194917
 C        -0.341190        -0.022178         2.178692
 C        -1.307909         0.948168         1.305849
 C        -0.609726         0.518034         0.004818
 C         0.577805         0.500198         1.058666
 O         1.943406        -0.041938         0.920017
 C        -0.741275         2.350072         1.718263
 H         1.905949         2.738332         0.717222
 H         1.212324         0.121862         3.549286
 H        -0.188603         1.416021         3.966293
 H        -0.784299        -1.045237         2.382736
 H        -2.423091         0.844753         1.556520
 H        -0.629492        -0.513302        -0.455878
 H        -0.557434         1.262634        -0.918312
 H         1.895942        -0.538289         0.027430
 H        -0.827263         3.136088         0.902279
 H        -1.132280         2.837615         2.652989
