19
Iteration:  2644charge 0 multiplicity 1
 O         1.531947         2.932446         1.814287
 C         0.664647         1.861336         1.836142
 C         0.441885         1.001239         3.218581
 C        -0.299273         0.165419         2.169639
 C        -1.292659         0.966417         1.306215
 C        -0.554629         0.269113         0.092216
 C         0.682171         0.391222         0.949945
 O         1.862217        -0.321690         0.918042
 C        -0.727462         2.362104         1.554116
 H         2.408801         2.595600         1.540106
 H         1.337106         0.548505         3.602312
 H        -0.162794         1.465527         4.048893
 H        -0.533161        -0.970069         2.275630
 H        -2.416549         0.809976         1.413006
 H        -0.573272        -0.850457         0.110943
 H        -0.741675         0.743861        -0.958325
 H         1.866922        -0.663948         0.063967
 H        -0.811507         2.962050         0.669030
 H        -1.074722         2.787108         2.516047
