19
Iteration:  4383
 O         1.741746         2.743629         1.676049
 C         0.691640         1.802947         1.797666
 C         0.331920         1.191114         3.236399
 C        -0.370997         0.195614         2.304010
 C        -1.351760         0.827110         1.351067
 C        -0.581831         0.278711         0.104898
 C         0.689880         0.412356         1.068711
 O         1.915324        -0.276657         0.866183
 C        -0.767947         2.287470         1.423877
 H         1.505436         3.413568         2.367693
 H         1.247459         0.805726         3.656888
 H        -0.240436         1.802506         3.897265
 H        -0.600928        -0.832250         2.738496
 H        -2.387709         0.674079         1.378210
 H        -0.788035        -0.854136        -0.148654
 H        -0.782349         0.904123        -0.771507
 H         2.415249         0.418703         0.516733
 H        -0.709208         2.829583         0.539121
 H        -1.271201         2.805102         2.220976
