19
Iteration:  3363charge 0 multiplicity 1
 O         1.707813         2.753961         1.710443
 C         0.695024         1.801989         1.839396
 C         0.571453         0.958394         3.149200
 C        -0.400249         0.042831         2.284482
 C        -1.416815         0.954130         1.259990
 C        -0.497303         0.476641         0.025646
 C         0.587093         0.455216         1.140237
 O         1.790334        -0.257776         0.934423
 C        -0.778462         2.264884         1.532185
 H         1.209426         3.407182         1.181843
 H         1.551764         0.448863         3.228301
 H         0.317146         1.527120         4.180027
 H        -0.698520        -0.867250         2.847040
 H        -2.437011         0.940558         1.366879
 H        -0.688872        -0.539947        -0.246529
 H        -0.228930         1.061000        -0.850528
 H         2.521464         0.280684         1.001360
 H        -0.955853         2.673656         0.527605
 H        -1.107660         3.062815         2.191305
