19
Iteration:  1474charge 0 multiplicity 1
 O         1.679499         2.743395         1.584878
 C         0.675347         1.799029         1.949187
 C         0.409364         0.915114         3.251218
 C        -0.351759         0.063364         2.196131
 C        -1.334921         0.868853         1.249270
 C        -0.502190         0.609701        -0.018858
 C         0.645905         0.416892         1.041948
 O         1.866228        -0.227448         0.980967
 C        -0.800459         2.323506         1.769551
 H         1.577207         3.100833         0.667255
 H         1.224049         0.338129         3.624911
 H        -0.042657         1.466190         4.108329
 H        -0.583319        -0.988885         2.443323
 H        -2.321673         0.787507         1.058945
 H        -0.664634        -0.266773        -0.609339
 H        -0.333012         1.411144        -0.701286
 H         2.010171        -0.505252         0.061878
 H        -0.798148         2.974183         0.885830
 H        -1.108478         2.858977         2.671446
