19
Iteration:   899
 O         1.626595         2.758653         1.687934
 C         0.627164         1.815503         1.877963
 C         0.526345         0.877509         3.157772
 C        -0.364942         0.005091         2.208181
 C        -1.329759         0.894866         1.298053
 C        -0.480353         0.624993         0.016935
 C         0.608614         0.458623         1.055726
 O         1.861924        -0.165496         0.757932
 C        -0.846698         2.363473         1.731775
 H         2.463524         2.283596         1.919887
 H         1.429399         0.337718         3.476699
 H         0.156132         1.308824         4.157501
 H        -0.617084        -1.048345         2.480448
 H        -2.508820         0.687925         1.451734
 H        -0.530194        -0.400658        -0.458148
 H        -0.125171         1.517615        -0.683791
 H         1.910026        -1.061098         1.264184
 H        -0.936527         3.157922         0.896555
 H        -1.362768         2.647425         2.707504
