19
Iteration:    61charge 0 multiplicity 1
 O         1.746817         2.724303         1.830045
 C         0.660754         1.865540         1.965653
 C         0.304047         0.918388         3.231013
 C        -0.284651        -0.026530         2.150702
 C        -1.310669         0.900507         1.338083
 C        -0.604147         0.304965         0.025858
 C         0.624866         0.432137         0.971331
 O         1.845162        -0.109059         0.624625
 C        -0.715260         2.440624         1.666637
 H         2.130163         2.923102         2.699235
 H         1.158042         0.505842         3.877849
 H        -0.359783         1.470501         3.959219
 H        -0.409652        -1.135833         2.461333
 H        -2.450164         0.862773         1.307261
 H        -0.886754        -0.803358         0.079006
 H        -0.638192         0.792173        -0.975289
 H         2.380356         0.640303         0.261372
 H        -0.677319         3.225017         0.859678
 H        -1.230764         3.035811         2.508914
