19
Iteration:  3587
 O         1.840899         2.620713         1.737517
 C         0.629221         1.813541         1.899966
 C         0.366477         1.097883         3.209718
 C        -0.414699         0.002980         2.393677
 C        -1.330194         0.881626         1.290181
 C        -0.551413         0.420239         0.124611
 C         0.652245         0.408232         1.142275
 O         1.829779        -0.111235         0.690107
 C        -0.759461         2.305461         1.395911
 H         1.709097         3.568909         1.706637
 H         1.356849         0.516659         3.473998
 H        -0.076246         1.563553         4.125927
 H        -0.497204        -1.012213         2.738441
 H        -2.485465         0.872811         1.403258
 H        -0.845819        -0.578540        -0.210081
 H        -0.660112         1.143278        -0.621688
 H         2.499242         0.515522         1.030973
 H        -0.855772         2.677113         0.387428
 H        -1.391638         2.804033         2.157251
