19
Iteration:  3868
 O         1.604606         2.834546         1.667943
 C         0.633018         1.924556         1.948235
 C         0.522169         1.028821         3.175886
 C        -0.364452         0.151339         2.182184
 C        -1.317572         0.938092         1.315175
 C        -0.564126         0.361940         0.072066
 C         0.664026         0.421473         1.015201
 O         1.850026        -0.341083         1.006645
 C        -0.800670         2.289831         1.510703
 H         2.469562         2.456549         1.826376
 H         1.511214         0.475956         3.254357
 H         0.103419         1.200068         4.125217
 H        -0.598259        -0.830334         2.338970
 H        -2.413324         0.815466         1.375185
 H        -0.844153        -0.657360        -0.199079
 H        -0.613768         0.896907        -0.878893
 H         2.489268         0.075954         0.469619
 H        -0.687954         2.733790         0.503487
 H        -1.381191         2.940878         2.279526
