19
Iteration:  3145
 O         1.742827         2.711899         1.830571
 C         0.590486         1.835672         1.805177
 C         0.471189         1.083750         3.185914
 C        -0.285986         0.045523         2.314120
 C        -1.299646         0.875375         1.338880
 C        -0.598057         0.386686         0.065211
 C         0.634944         0.484808         0.980371
 O         1.818512        -0.293653         0.857698
 C        -0.768490         2.341420         1.486388
 H         1.575048         3.405069         1.184765
 H         1.487779         0.860081         3.474045
 H        -0.128040         1.484331         3.977757
 H        -0.701836        -0.956778         2.638351
 H        -2.389550         0.802815         1.439394
 H        -0.773979        -0.620355        -0.320508
 H        -0.545998         1.194708        -0.811634
 H         2.600984         0.324830         1.038753
 H        -1.065902         2.748831         0.497909
 H        -1.384367         2.806839         2.275803
