19
Iteration:   387
 O         1.713080         2.687098         1.833235
 C         0.657971         1.806119         1.852066
 C         0.479839         0.855873         3.202794
 C        -0.310735        -0.008879         2.172524
 C        -1.335076         0.876740         1.375033
 C        -0.599244         0.604198        -0.030482
 C         0.584416         0.490656         1.028812
 O         1.869977        -0.016606         0.770529
 C        -0.815827         2.302229         1.606324
 H         2.455875         2.079793         1.568992
 H         1.522279         0.537631         3.509676
 H        -0.128403         1.275278         4.012310
 H        -0.628254        -1.152443         2.316056
 H        -2.442941         0.512343         1.389781
 H        -0.814168        -0.389400        -0.482871
 H        -0.682815         1.564624        -0.525506
 H         2.086589        -0.746232         1.449502
 H        -0.796840         2.985828         0.704889
 H        -1.251761         2.883920         2.423688
