19
Iteration:  4190
 O         1.670932         2.819834         1.694848
 C         0.647672         1.887964         1.766548
 C         0.389229         1.144138         3.171565
 C        -0.318445         0.098011         2.328533
 C        -1.361397         0.898038         1.315499
 C        -0.520625         0.392484         0.136992
 C         0.718668         0.342150         1.093169
 O         1.875052        -0.457294         0.808071
 C        -0.794999         2.343809         1.472249
 H         1.499708         3.249006         2.566140
 H         1.370022         0.852143         3.518877
 H        -0.085599         1.715219         3.975394
 H        -0.745254        -0.789860         2.731782
 H        -2.402916         0.722893         1.370586
 H        -0.769820        -0.580922        -0.185328
 H        -0.382485         1.134916        -0.648743
 H         2.563835         0.223505         1.087224
 H        -0.901393         2.805036         0.438720
 H        -1.414888         2.966834         2.189289
