19
Iteration:  4302charge 0 multiplicity 1
 O         1.719620         2.618164         1.427792
 C         0.624258         1.876875         1.845871
 C         0.328778         1.019070         3.198937
 C        -0.291658         0.036840         2.264421
 C        -1.310549         0.915516         1.323145
 C        -0.486248         0.401625         0.113358
 C         0.641193         0.395356         1.150357
 O         1.898842        -0.186598         1.002967
 C        -0.882053         2.394472         1.504904
 H         2.117697         3.008734         2.238931
 H         1.245373         0.730607         3.798241
 H        -0.212572         1.614113         3.918653
 H        -0.645858        -0.963182         2.513120
 H        -2.421260         0.602757         1.374493
 H        -0.782865        -0.622835        -0.046534
 H        -0.270042         1.154892        -0.741785
 H         2.542613         0.437941         0.795796
 H        -1.096183         3.050835         0.571749
 H        -1.270998         2.985679         2.379216
