19
Iteration:   676
 O         1.783049         2.633402         1.886161
 C         0.666319         1.800422         1.887659
 C         0.371088         1.024216         3.222827
 C        -0.450939         0.000228         2.307504
 C        -1.357111         0.881990         1.352048
 C        -0.585491         0.389206         0.124416
 C         0.687697         0.401783         1.049256
 O         1.861721        -0.004088         0.503398
 C        -0.718920         2.316661         1.530414
 H         1.556915         3.549867         1.643144
 H         1.319761         0.464131         3.435234
 H         0.014884         1.556161         4.092941
 H        -0.787504        -0.916995         2.691899
 H        -2.401394         0.814268         1.515176
 H        -0.938266        -0.584622        -0.248482
 H        -0.663598         1.103222        -0.765256
 H         2.491909        -0.287646         1.233072
 H        -0.578325         2.945669         0.635541
 H        -1.094088         2.900665         2.351156
