19
Iteration:  2733charge 0 multiplicity 1
 O         1.791115         2.677840         1.702768
 C         0.696335         1.842389         1.880547
 C         0.329742         0.961382         3.181882
 C        -0.424007         0.076835         2.233534
 C        -1.311270         0.950504         1.301008
 C        -0.540137         0.267299         0.102050
 C         0.574972         0.524474         1.068754
 O         1.917936         0.031781         0.860291
 C        -0.813439         2.332974         1.543307
 H         2.315300         2.353567         0.938708
 H         1.151008         0.263567         3.430989
 H        -0.091297         1.485931         4.056842
 H        -0.642662        -0.996523         2.675896
 H        -2.338846         0.742713         1.353882
 H        -0.518989        -0.872485         0.190346
 H        -0.685026         0.740163        -0.946729
 H         2.184851        -0.804367         1.111055
 H        -0.818025         2.912180         0.607265
 H        -1.459447         2.760845         2.354970
