19
Iteration:   346charge 0 multiplicity 1
 O         1.734087         2.629176         1.953379
 C         0.617271         1.783400         1.963325
 C         0.298903         0.918000         3.285268
 C        -0.316244         0.020060         2.284930
 C        -1.341911         0.945645         1.311904
 C        -0.545670         0.358405         0.106867
 C         0.653981         0.393984         1.006179
 O         1.913461         0.093194         0.403331
 C        -0.754671         2.444010         1.561683
 H         2.469276         2.166170         1.534759
 H         1.230582         0.517640         3.696835
 H        -0.466380         1.382316         3.941761
 H        -0.922500        -1.021171         2.496948
 H        -2.410849         0.839162         1.463389
 H        -0.902345        -0.691166         0.027101
 H        -0.492329         0.879387        -0.836111
 H         2.394265        -0.562173         0.939168
 H        -0.951804         3.116259         0.752636
 H        -1.059986         2.857316         2.540868
