19
Iteration:  1948
 O         1.615521         2.825123         1.821417
 C         0.652456         1.782556         1.868182
 C         0.609802         0.943817         3.077741
 C        -0.303559         0.093688         2.196651
 C        -1.372287         0.847545         1.334328
 C        -0.548171         0.594726        -0.041115
 C         0.653344         0.490637         1.048179
 O         1.806623        -0.242554         0.963764
 C        -0.791121         2.237357         1.625721
 H         2.028248         3.017903         0.959635
 H         1.507083         0.436753         3.298218
 H         0.171738         1.448210         4.007540
 H        -0.512215        -0.929014         2.375588
 H        -2.410574         0.598948         1.552034
 H        -0.766343        -0.361748        -0.532823
 H        -0.340548         1.424167        -0.742675
 H         1.546488        -1.141202         0.628986
 H        -0.814817         2.933135         0.779831
 H        -1.384616         2.764470         2.320891
