19
Iteration:  1071
 O         1.720698         2.766819         1.896734
 C         0.673763         1.838518         1.984480
 C         0.369212         0.982937         3.221345
 C        -0.269411         0.010076         2.211141
 C        -1.302031         0.911621         1.339448
 C        -0.591931         0.507327         0.063595
 C         0.666580         0.399746         0.999461
 O         1.802273        -0.296946         0.586756
 C        -0.719323         2.357766         1.626263
 H         1.403936         3.293954         1.145454
 H         1.338690         0.537421         3.659883
 H        -0.355701         1.418007         4.000806
 H        -0.727968        -1.047530         2.465428
 H        -2.470827         0.870326         1.401903
 H        -0.794085        -0.494636        -0.406902
 H        -0.504349         1.361215        -0.645369
 H         2.614346         0.195012         0.798777
 H        -0.877626         2.762376         0.599229
 H        -1.325366         2.873838         2.412542
