19
Iteration:  1006
 O         1.816960         2.588815         1.767901
 C         0.659390         1.798351         1.878852
 C         0.428705         0.876952         3.144590
 C        -0.297741         0.002357         2.090879
 C        -1.342333         0.927543         1.371989
 C        -0.647737         0.546313         0.034400
 C         0.596301         0.484882         0.982997
 O         1.872782        -0.090077         0.859956
 C        -0.861439         2.330944         1.726597
 H         1.926461         2.808801         0.818772
 H         1.275002         0.492657         3.801983
 H        -0.223873         1.378543         3.971720
 H        -0.466972        -1.112046         2.228509
 H        -2.483586         0.694953         1.505481
 H        -0.776247        -0.491527        -0.358705
 H        -0.621797         1.395055        -0.717273
 H         2.439341         0.778233         0.949903
 H        -0.956975         2.997831         0.824605
 H        -0.981440         2.853680         2.682214
