19
Iteration:  1566charge 0 multiplicity 1
 O         1.742988         2.609441         1.887332
 C         0.606664         1.830352         1.917321
 C         0.429144         1.058334         3.255565
 C        -0.354786         0.017608         2.289243
 C        -1.334146         0.964552         1.334741
 C        -0.589741         0.393033         0.102222
 C         0.629471         0.381644         1.106461
 O         1.930914        -0.019056         0.574235
 C        -0.741699         2.331888         1.444389
 H         1.857848         3.035038         2.745202
 H         1.405167         0.570043         3.587047
 H        -0.125082         1.419551         4.128214
 H        -0.971755        -0.871705         2.476358
 H        -2.515673         0.751977         1.375067
 H        -0.840604        -0.632398        -0.295762
 H        -0.577365         1.028216        -0.777730
 H         1.741233        -0.807584        -0.017239
 H        -0.606589         2.704117         0.343381
 H        -1.293768         3.024181         2.165036
