19
Iteration:  4840
 O         1.677608         2.839518         1.786009
 C         0.574818         1.927862         1.855808
 C         0.434518         1.161462         3.207777
 C        -0.296809         0.112665         2.314276
 C        -1.314484         0.878587         1.340249
 C        -0.530599         0.247642         0.095200
 C         0.626110         0.343678         1.101842
 O         1.846874        -0.334837         0.811840
 C        -0.733202         2.322493         1.371161
 H         1.529350         3.115955         0.849128
 H         1.319755         0.724834         3.653072
 H        -0.066660         1.669067         4.004202
 H        -0.500371        -0.995747         2.690381
 H        -2.464041         0.839237         1.417258
 H        -0.680640        -0.809092         0.012467
 H        -0.523007         0.905596        -0.841076
 H         2.420097         0.301507         1.239148
 H        -0.557391         2.769799         0.391653
 H        -1.407529         2.858383         2.099906
