19
Iteration:  2321
 O         1.632953         2.814536         1.934893
 C         0.627812         1.828981         1.848917
 C         0.441471         1.104347         3.216076
 C        -0.303648         0.045774         2.291344
 C        -1.343727         0.839631         1.419415
 C        -0.544982         0.435600         0.078673
 C         0.653217         0.433590         1.030904
 O         1.794179        -0.317313         0.773771
 C        -0.664261         2.275554         1.362151
 H         1.724498         3.374808         1.135538
 H         1.406112         0.601024         3.514855
 H        -0.122593         1.583994         4.037290
 H        -0.649774        -0.965008         2.751238
 H        -2.392235         0.703330         1.541509
 H        -0.808680        -0.581843        -0.332823
 H        -0.365069         1.190918        -0.861722
 H         2.325531         0.268559         0.162197
 H        -0.698899         2.608522         0.310188
 H        -1.061554         3.081955         1.961589
