19
Iteration:    34charge 0 multiplicity 1
 O         1.794746         2.568746         1.832034
 C         0.662740         1.787675         1.865454
 C         0.407781         0.960624         3.218968
 C        -0.372131         0.039751         2.273706
 C        -1.309759         0.887334         1.372982
 C        -0.567067         0.477332         0.089382
 C         0.623811         0.462345         1.042567
 O         1.862386         0.041483         0.591800
 C        -0.882379         2.276167         1.504790
 H         2.296427         2.388206         2.652394
 H         1.297677         0.517229         3.614362
 H        -0.082504         1.554745         3.986265
 H        -0.727575        -0.894146         2.616731
 H        -2.376971         0.731212         1.352201
 H        -0.837666        -0.519388        -0.171900
 H        -0.587675         1.146944        -0.775630
 H         2.611606         0.337020         1.149280
 H        -0.952232         2.849366         0.574527
 H        -1.325410         2.822214         2.308536
