19
Iteration:  2017
 O         1.799586         2.616501         1.970200
 C         0.636192         1.864414         1.913070
 C         0.369715         1.052568         3.113250
 C        -0.328916        -0.009607         2.254689
 C        -1.391105         0.851965         1.363728
 C        -0.611294         0.392491         0.147570
 C         0.613788         0.417307         1.065525
 O         1.838517        -0.003089         0.601233
 C        -0.689039         2.245850         1.414605
 H         1.763148         3.365998         1.356655
 H         1.308418         0.546956         3.564902
 H        -0.072764         1.536614         3.990389
 H        -0.779233        -0.899113         2.819146
 H        -2.411537         0.882372         1.584178
 H        -0.799684        -0.705025        -0.275053
 H        -0.607686         1.251436        -0.592422
 H         2.568055        -0.020747         1.361685
 H        -0.631656         2.735574         0.438815
 H        -1.152426         3.097327         1.852505
