19
Iteration:  4236charge 0 multiplicity 1
 O         1.691425         2.668250         1.689471
 C         0.637324         1.836993         1.846145
 C         0.366908         1.159819         3.196306
 C        -0.376790         0.124000         2.304447
 C        -1.374594         0.912037         1.324360
 C        -0.550700         0.249175         0.140542
 C         0.706677         0.452949         1.069445
 O         1.925083        -0.264245         0.806734
 C        -0.758222         2.366416         1.413086
 H         1.880195         3.392257         2.285730
 H         1.220734         0.609501         3.658122
 H        -0.137856         1.616560         3.993555
 H        -0.603474        -0.876911         2.458312
 H        -2.432619         0.588742         1.403326
 H        -0.833886        -0.740069         0.137465
 H        -0.744717         0.845490        -0.739418
 H         2.609978         0.317468         1.149917
 H        -0.808384         3.006541         0.465612
 H        -1.233382         2.943017         2.221401
