19
Iteration:  2840charge 0 multiplicity 1
 O         1.631409         2.720255         1.610942
 C         0.640454         1.784697         1.809917
 C         0.499945         0.976105         3.140089
 C        -0.359457         0.058324         2.239063
 C        -1.379440         0.924779         1.375473
 C        -0.544908         0.466384         0.065485
 C         0.570702         0.386709         1.081071
 O         1.955706        -0.180608         1.012702
 C        -0.775659         2.347209         1.492366
 H         2.307478         2.597634         2.327900
 H         1.370168         0.538989         3.619738
 H        -0.034906         1.432783         4.009242
 H        -0.631675        -0.946805         2.738126
 H        -2.527747         0.723850         1.334071
 H        -0.973697        -0.364732        -0.414568
 H        -0.570064         1.225865        -0.689891
 H         2.418072         0.357952         0.395374
 H        -0.858759         2.796515         0.510836
 H        -1.128024         3.060443         2.263087
