19
Iteration:  2372charge 0 multiplicity 1
 O         1.822836         2.477287         1.648332
 C         0.610867         1.730226         1.819911
 C         0.458879         1.060794         3.106462
 C        -0.459578         0.117751         2.280570
 C        -1.354682         0.950893         1.291499
 C        -0.491265         0.357771         0.083558
 C         0.630775         0.394546         1.100454
 O         1.934098         0.039251         0.912171
 C        -0.871113         2.326708         1.615515
 H         1.558961         3.195530         1.036983
 H         1.368639         0.564432         3.352254
 H        -0.158873         1.658556         3.811114
 H        -0.817115        -0.977648         2.551031
 H        -2.401426         0.653721         1.259448
 H        -0.920480        -0.545619        -0.222838
 H        -0.439468         1.060224        -0.700704
 H         2.455809         0.604793         1.434965
 H        -1.092565         3.047292         0.854083
 H        -1.355929         2.593808         2.593699
