19
Iteration:  2199charge 0 multiplicity 1
 O         1.889238         2.449841         1.762996
 C         0.663566         1.869469         1.920674
 C         0.244667         1.056714         3.220107
 C        -0.403341         0.127507         2.276712
 C        -1.373032         0.804774         1.334796
 C        -0.520595         0.234720         0.057356
 C         0.628244         0.569141         1.071818
 O         1.884433         0.096893         0.676500
 C        -0.804393         2.318680         1.563729
 H         2.104032         2.751404         0.863504
 H         0.947224         0.512185         3.807174
 H        -0.285829         1.647595         3.947663
 H        -0.688949        -0.962240         2.557287
 H        -2.453384         0.717282         1.450274
 H        -0.670264        -0.813464         0.056130
 H        -0.458658         0.678235        -0.951452
 H         2.669730         0.444486         1.192061
 H        -0.891535         3.093483         0.788943
 H        -1.282725         2.802559         2.424928
