19
Iteration:  3838charge 0 multiplicity 1
 O         1.644172         2.845005         1.586341
 C         0.694168         1.854675         1.829565
 C         0.460675         1.063759         3.183105
 C        -0.341447         0.050650         2.200757
 C        -1.315084         0.914668         1.257700
 C        -0.483729         0.416745         0.072185
 C         0.605158         0.370869         1.117880
 O         1.791511        -0.253947         1.035974
 C        -0.785533         2.294013         1.607960
 H         2.587863         2.529600         1.620744
 H         1.392182         0.704490         3.633162
 H        -0.285205         1.264349         3.954543
 H        -0.589724        -0.997629         2.356254
 H        -2.382275         0.751667         1.169340
 H        -0.743733        -0.661229        -0.165527
 H        -0.365415         1.216040        -0.785736
 H         2.141529        -0.104718         0.125955
 H        -0.970671         2.993004         0.833801
 H        -1.185535         2.658583         2.589734
