19
Iteration:  1420charge 0 multiplicity 1
 O         1.756987         2.679356         1.960124
 C         0.676891         1.793046         1.970147
 C         0.479056         0.987171         3.216498
 C        -0.402042         0.095489         2.333214
 C        -1.323685         0.921048         1.332707
 C        -0.645831         0.355629         0.021826
 C         0.597909         0.385693         1.041679
 O         1.859019        -0.017954         0.645822
 C        -0.696021         2.297173         1.359269
 H         1.497966         3.626129         2.052668
 H         1.351918         0.411034         3.384468
 H         0.190584         1.522452         4.150913
 H        -0.825509        -0.892609         2.593239
 H        -2.344681         0.937686         1.479616
 H        -0.688815        -0.666369        -0.088239
 H        -0.607819         0.895801        -0.816209
 H         1.736375        -0.889744         0.336726
 H        -0.527685         2.891042         0.419794
 H        -1.282881         2.952757         2.005384
