19
Iteration:   583charge 0 multiplicity 1
 O         1.804104         2.727137         1.659385
 C         0.600695         1.802608         1.926191
 C         0.533814         0.765884         3.157423
 C        -0.333389         0.053637         2.114179
 C        -1.378674         1.007720         1.305798
 C        -0.520103         0.563560         0.041950
 C         0.610032         0.472960         1.021696
 O         1.832729        -0.166917         0.931483
 C        -0.868648         2.308998         1.779874
 H         1.473850         3.297167         0.926570
 H         1.390628         0.070906         3.273200
 H         0.061966         1.072903         4.125041
 H        -0.682528        -1.018209         2.212914
 H        -2.504058         0.648530         1.330648
 H        -0.823234        -0.506739        -0.291623
 H        -0.456606         1.086848        -0.965078
 H         2.570286         0.301621         0.466981
 H        -1.051808         3.137052         1.051825
 H        -1.302617         2.634533         2.771999
