19
Iteration:  3708charge 0 multiplicity 1
 O         1.624734         2.770484         1.527088
 C         0.709632         1.885643         1.903531
 C         0.404199         1.022214         3.182934
 C        -0.373917         0.105071         2.257688
 C        -1.328448         0.853540         1.259563
 C        -0.470561         0.514856         0.059537
 C         0.703001         0.443346         1.118595
 O         1.815459        -0.355465         0.925248
 C        -0.810386         2.271064         1.634046
 H         2.110235         3.203427         2.230307
 H         1.355808         0.611598         3.551851
 H        -0.062446         1.682735         3.918642
 H        -0.657849        -0.866565         2.666112
 H        -2.406455         0.679592         1.145202
 H        -0.503128        -0.520779        -0.219407
 H        -0.623637         1.015016        -0.825928
 H         2.490534         0.122611         0.394183
 H        -0.941821         3.015507         0.883117
 H        -1.225600         2.652019         2.537751
