19
Iteration:   771charge 0 multiplicity 1
 O         1.604068         2.774534         1.867702
 C         0.691949         1.811331         1.942797
 C         0.487506         0.900550         3.239115
 C        -0.256202         0.024790         2.221786
 C        -1.315559         0.964928         1.367873
 C        -0.539842         0.525484         0.047354
 C         0.596792         0.444609         1.014665
 O         1.822943        -0.202639         0.647403
 C        -0.720364         2.315546         1.585553
 H         1.588093         3.238893         1.025293
 H         1.380483         0.346247         3.441522
 H         0.045267         1.502382         4.050593
 H        -0.599775        -1.042900         2.437945
 H        -2.432078         0.846482         1.427439
 H        -0.858990        -0.419817        -0.402091
 H        -0.439919         1.246330        -0.740664
 H         1.660257        -1.089859         1.070312
 H        -0.629546         2.821056         0.657605
 H        -1.288728         2.949033         2.278792
