19
Iteration:  2524
 O         1.815469         2.574816         1.654042
 C         0.564712         1.847731         1.856913
 C         0.455885         1.036739         3.197769
 C        -0.359798         0.111994         2.279874
 C        -1.357653         0.856946         1.322817
 C        -0.488164         0.438549         0.058444
 C         0.632155         0.407051         1.133299
 O         1.902867        -0.138700         0.894128
 C        -0.903233         2.321733         1.564590
 H         1.667479         3.365877         1.094454
 H         1.478568         0.720277         3.403889
 H        -0.112155         1.310798         4.141260
 H        -0.684266        -0.948306         2.539184
 H        -2.408469         0.711150         1.437755
 H        -0.745814        -0.561425        -0.365086
 H        -0.429225         1.115336        -0.896208
 H         2.243619         0.624277         0.411829
 H        -1.032679         2.883986         0.613719
 H        -1.405412         2.931875         2.405869
