19
Iteration:  2590
 O         1.667676         2.725347         1.628632
 C         0.625869         1.842200         1.905949
 C         0.388786         1.090918         3.186293
 C        -0.339174         0.091688         2.268911
 C        -1.373074         0.893488         1.301097
 C        -0.482298         0.368027         0.132683
 C         0.638308         0.463727         1.113009
 O         1.896575        -0.239592         0.788448
 C        -0.789157         2.306583         1.567287
 H         2.174209         2.639917         2.452729
 H         1.357432         0.823538         3.630354
 H        -0.258180         1.600642         3.956081
 H        -0.577634        -1.026949         2.486402
 H        -2.404851         0.642873         1.231413
 H        -0.639346        -0.717719        -0.071396
 H        -0.565446         0.784524        -0.967559
 H         2.523740         0.286117         0.362049
 H        -0.828852         2.952875         0.679583
 H        -1.257327         2.952474         2.374737
