19
Iteration:   576
 O         1.871279         2.689076         1.623974
 C         0.640927         1.776743         1.927220
 C         0.468850         0.791382         3.177108
 C        -0.340773         0.044368         2.097309
 C        -1.379147         0.925690         1.324215
 C        -0.547001         0.570807         0.034305
 C         0.608271         0.556185         1.005872
 O         1.832132        -0.183676         0.943944
 C        -0.891620         2.312839         1.805368
 H         1.282930         3.237880         1.089218
 H         1.470221         0.425962         3.336342
 H         0.056914         1.271352         4.099248
 H        -0.575988        -1.105823         2.109730
 H        -2.322443         0.715894         1.155389
 H        -0.677133        -0.467083        -0.342760
 H        -0.620441         1.323466        -0.819354
 H         2.504685         0.499272         0.505742
 H        -1.098812         3.086988         1.114712
 H        -1.397288         2.575350         2.729099
