19
Iteration:  1389charge 0 multiplicity 1
 O         1.794632         2.683873         1.894259
 C         0.651446         1.791226         1.942344
 C         0.236072         1.024998         3.211992
 C        -0.326711        -0.034480         2.235384
 C        -1.283985         0.940225         1.409964
 C        -0.627935         0.379904         0.120761
 C         0.685083         0.415828         1.042493
 O         1.866675        -0.074802         0.531253
 C        -0.665394         2.409412         1.511277
 H         1.479884         3.581059         1.776049
 H         1.042994         0.649511         3.766741
 H        -0.457935         1.683954         3.724841
 H        -0.712737        -0.994043         2.458930
 H        -2.347111         0.795317         1.578466
 H        -0.624803        -0.721060         0.020998
 H        -0.615455         0.737136        -0.919406
 H         2.047842        -1.065139         0.773811
 H        -0.666293         2.939914         0.499197
 H        -1.155074         2.917555         2.333024
