19
Iteration:   606
 O         1.631902         2.789837         1.879489
 C         0.611464         1.717079         1.903022
 C         0.555862         0.889513         3.109282
 C        -0.362617         0.024923         2.201796
 C        -1.314825         0.977237         1.335584
 C        -0.583966         0.524493         0.030762
 C         0.574634         0.391751         1.008826
 O         1.839679        -0.210518         0.810942
 C        -0.673940         2.332431         1.669254
 H         1.498228         3.075911         0.948822
 H         1.534643         0.416503         3.192759
 H         0.221470         1.431564         4.053553
 H        -0.686756        -1.099600         2.376388
 H        -2.412189         0.861643         1.221492
 H        -0.815080        -0.457737        -0.544154
 H        -0.609721         1.312379        -0.815271
 H         2.476515         0.428762         0.520746
 H        -0.725945         3.036971         0.840315
 H        -1.123129         2.820446         2.583014
