19
Iteration:   652
 O         1.815742         2.626465         1.979859
 C         0.676363         1.887753         1.921771
 C         0.351644         1.067697         3.244058
 C        -0.227630         0.037851         2.177727
 C        -1.344164         0.896724         1.336622
 C        -0.527143         0.354502         0.115121
 C         0.647587         0.475158         1.019935
 O         1.747911        -0.164730         0.439255
 C        -0.820307         2.337291         1.587887
 H         1.700007         3.592419         1.838720
 H         1.220977         0.769834         3.821645
 H        -0.384575         1.616385         3.905611
 H        -0.621816        -0.975738         2.546097
 H        -2.278097         0.645296         1.503619
 H        -0.904105        -0.723374         0.095758
 H        -0.487749         0.644997        -0.999837
 H         2.350807        -0.131089         1.136348
 H        -0.779846         2.960908         0.729997
 H        -1.320136         2.915821         2.383396
