19
Iteration:  1910
 O         1.701181         2.719092         1.767983
 C         0.703312         1.803556         1.896057
 C         0.391088         0.914049         3.152094
 C        -0.389095         0.097798         2.221386
 C        -1.353798         0.985300         1.340169
 C        -0.517423         0.421125         0.072937
 C         0.584907         0.409805         1.065948
 O         1.983484        -0.053281         0.791918
 C        -0.820722         2.313109         1.635533
 H         1.754672         2.857209         0.809529
 H         1.289051         0.338248         3.559307
 H        -0.165576         1.397673         3.905201
 H        -0.649113        -1.002271         2.394640
 H        -2.421317         0.643003         1.534802
 H        -0.776768        -0.630608        -0.088789
 H        -0.435301         0.996740        -0.835252
 H         1.844006        -0.952543         0.287201
 H        -0.747292         3.021316         0.787041
 H        -1.234036         2.744709         2.599309
