19
Iteration:  4295charge 0 multiplicity 1
 O         1.728520         2.538997         1.412044
 C         0.580257         1.892464         1.900734
 C         0.340092         1.063247         3.214201
 C        -0.320521         0.078582         2.246308
 C        -1.331627         0.924559         1.367166
 C        -0.430909         0.430045         0.142860
 C         0.642633         0.449565         1.085218
 O         1.917790        -0.166664         1.014883
 C        -0.898032         2.343647         1.507854
 H         2.281841         2.916548         2.137627
 H         1.300174         0.709487         3.553710
 H        -0.357833         1.433459         3.991772
 H        -0.677267        -1.018403         2.413122
 H        -2.390822         0.628038         1.401030
 H        -0.728619        -0.588427        -0.246836
 H        -0.549437         0.879763        -0.809309
 H         2.621047         0.475454         0.800308
 H        -0.890930         2.852254         0.597997
 H        -1.345900         2.955316         2.268425
