19
Iteration:  4576charge 0 multiplicity 1
 O         1.748221         2.627071         1.457991
 C         0.654229         1.810568         1.831000
 C         0.315051         1.120737         3.223929
 C        -0.324754         0.108304         2.311662
 C        -1.380272         0.890390         1.319806
 C        -0.522910         0.237626         0.087838
 C         0.587247         0.401427         1.160112
 O         1.881258        -0.037959         1.021035
 C        -0.773508         2.291423         1.442147
 H         2.386243         2.538720         2.205613
 H         1.238704         0.639644         3.696668
 H        -0.104566         1.709611         4.081852
 H        -0.671878        -0.924551         2.570837
 H        -2.398089         0.787042         1.348599
 H        -0.728999        -0.643405        -0.346985
 H        -0.321822         0.976250        -0.699122
 H         2.435108         0.688414         0.542008
 H        -0.801508         3.039280         0.599019
 H        -1.184286         2.824048         2.329147
