19
Iteration:  2867
 O         1.818026         2.599073         1.573270
 C         0.648662         1.845236         1.898063
 C         0.406669         1.045236         3.135017
 C        -0.324821         0.027870         2.174027
 C        -1.388029         0.860455         1.317604
 C        -0.615747         0.370120         0.064583
 C         0.575857         0.484609         1.106235
 O         1.887347        -0.090666         0.948347
 C        -0.765724         2.337516         1.556854
 H         2.145456         3.063313         2.388151
 H         1.344891         0.594155         3.556055
 H        -0.203513         1.453153         3.964187
 H        -0.431415        -0.968805         2.550047
 H        -2.426231         0.764361         1.415657
 H        -0.846399        -0.740652        -0.249235
 H        -0.947914         1.068342        -0.789018
 H         2.481814         0.535650         1.254662
 H        -0.968354         2.982228         0.655215
 H        -1.287054         2.846854         2.384791
