19
Iteration:  1769charge 0 multiplicity 1
 O         1.663221         2.782427         1.611921
 C         0.682947         1.783046         1.900715
 C         0.419710         0.917690         3.166076
 C        -0.292121        -0.013590         2.187048
 C        -1.343282         0.876947         1.361249
 C        -0.559423         0.610279        -0.003667
 C         0.573283         0.471574         0.991857
 O         1.880462        -0.107685         0.906966
 C        -0.752031         2.272161         1.723681
 H         2.595737         2.512566         1.712354
 H         1.370023         0.358949         3.534397
 H        -0.134069         1.325205         4.005150
 H        -0.622743        -1.049842         2.529670
 H        -2.493553         0.785494         1.486025
 H        -0.840894        -0.367017        -0.539818
 H        -0.453041         1.464455        -0.803441
 H         1.776203        -1.131569         0.768466
 H        -0.896631         2.982667         0.889347
 H        -1.163648         2.708184         2.703032
