19
Iteration:  2543
 O         1.741853         2.466831         1.573132
 C         0.583470         1.787458         1.856306
 C         0.515188         1.035491         3.188116
 C        -0.361757        -0.018450         2.276031
 C        -1.374466         0.874836         1.326521
 C        -0.544299         0.483406         0.147533
 C         0.612489         0.473322         1.049265
 O         1.870162         0.013873         0.980787
 C        -0.818196         2.302003         1.478755
 H         1.649462         3.427269         1.525227
 H         1.344895         0.386724         3.388133
 H         0.273323         1.611949         4.078007
 H        -0.564975        -0.958074         2.581738
 H        -2.476632         0.687184         1.329026
 H        -0.694057        -0.481034        -0.383624
 H        -0.579530         1.183529        -0.750486
 H         2.494669         0.679001         1.202326
 H        -0.769506         2.943236         0.606484
 H        -1.234872         2.951516         2.205088
