19
Iteration:  3397charge 0 multiplicity 1
 O         1.770663         2.638973         1.667097
 C         0.663822         1.815862         1.845566
 C         0.318760         1.086103         3.177981
 C        -0.271157         0.015725         2.227132
 C        -1.359274         0.983949         1.361196
 C        -0.562960         0.415652         0.034704
 C         0.633951         0.439702         1.081095
 O         1.900873        -0.223520         0.847752
 C        -0.792984         2.320605         1.638748
 H         1.583953         3.124390         0.825724
 H         1.212722         0.704630         3.741161
 H        -0.391603         1.550867         3.977737
 H        -0.734578        -0.927611         2.547717
 H        -2.393594         0.787290         1.338564
 H        -0.930877        -0.568874        -0.129090
 H        -0.637549         1.012915        -0.854812
 H         2.664375         0.319222         1.174140
 H        -0.957219         2.946763         0.737818
 H        -1.128896         2.854774         2.520073
