19
Iteration:  3404
 O         1.818548         2.648436         1.702367
 C         0.660358         1.739175         1.815126
 C         0.341311         1.128136         3.218129
 C        -0.316748         0.039294         2.266330
 C        -1.409170         0.932097         1.384933
 C        -0.535908         0.415667         0.046956
 C         0.653221         0.426928         1.049857
 O         1.874811        -0.187777         0.820006
 C        -0.829116         2.333021         1.640242
 H         1.886694         3.099957         0.823812
 H         1.172956         0.733721         3.766611
 H        -0.427968         1.719105         3.801703
 H        -0.668261        -1.013223         2.358312
 H        -2.455463         0.633225         1.157063
 H        -0.922104        -0.644388        -0.097640
 H        -0.663332         1.003589        -0.958740
 H         2.649710         0.506323         1.025397
 H        -0.787343         2.872810         0.687085
 H        -1.055597         2.929736         2.538814
