19
Iteration:  2639charge 0 multiplicity 1
 O         1.564515         2.962493         1.855128
 C         0.670791         1.824243         1.844466
 C         0.411332         1.044968         3.169791
 C        -0.271813         0.117517         2.166474
 C        -1.335676         0.920040         1.342936
 C        -0.559176         0.314951         0.072014
 C         0.672591         0.393606         1.001822
 O         1.880998        -0.350282         0.906663
 C        -0.753994         2.358798         1.522475
 H         2.409605         2.606279         1.519767
 H         1.324204         0.453910         3.469321
 H        -0.021037         1.590345         3.991664
 H        -0.348695        -0.883921         2.387101
 H        -2.469906         1.064483         1.562460
 H        -0.746545        -0.766380         0.034967
 H        -0.684857         0.718399        -0.871805
 H         2.048980        -0.685585        -0.083317
 H        -0.878856         2.891638         0.538022
 H        -1.188067         2.924990         2.347703
