19
Iteration:  2475
 O         1.611071         2.944556         1.947353
 C         0.648557         1.882858         1.926308
 C         0.520042         1.019036         3.158147
 C        -0.260552         0.055000         2.263333
 C        -1.343120         0.868068         1.385231
 C        -0.561466         0.359489         0.118922
 C         0.642897         0.429018         1.005414
 O         1.773357        -0.460159         0.791113
 C        -0.725739         2.392121         1.361301
 H         1.364554         3.457523         1.162304
 H         1.498806         0.553871         3.430870
 H         0.215647         1.619775         3.976252
 H        -0.522188        -0.983082         2.463297
 H        -2.449080         0.680486         1.409414
 H        -0.880356        -0.632243        -0.273710
 H        -0.474088         0.945811        -0.822523
 H         2.618973         0.045758         0.564734
 H        -0.722691         2.730833         0.330769
 H        -1.266643         3.149313         1.848877
