19
Iteration:  1864
 O         1.814231         2.527403         1.979756
 C         0.628732         1.866978         1.845511
 C         0.350111         1.025419         3.229900
 C        -0.284911         0.056719         2.198647
 C        -1.357082         0.828147         1.464662
 C        -0.588232         0.394305         0.160626
 C         0.660176         0.423176         1.051806
 O         1.843807         0.091566         0.660201
 C        -0.792702         2.377996         1.377460
 H         1.977109         2.876486         1.078883
 H         1.313275         0.586386         3.498731
 H        -0.173698         1.467336         4.088154
 H        -0.511696        -0.970177         2.590088
 H        -2.341183         0.627077         1.481146
 H        -0.873131        -0.644740        -0.212792
 H        -0.503994         1.059375        -0.700267
 H         1.931220        -0.803482         0.253994
 H        -0.789570         2.548352         0.288828
 H        -1.359727         3.076786         1.976941
