19
Iteration:  3518charge 0 multiplicity 1
 O         1.670953         2.769366         1.699837
 C         0.662713         1.862779         1.897886
 C         0.547013         1.014113         3.148079
 C        -0.333185         0.035942         2.274888
 C        -1.292143         0.869006         1.356685
 C        -0.505543         0.561020        -0.002251
 C         0.633943         0.421584         1.088418
 O         1.786984        -0.338604         0.959168
 C        -0.885806         2.334157         1.563100
 H         1.650806         2.956919         0.739992
 H         1.420773         0.330459         3.432164
 H         0.074605         1.699548         3.944445
 H        -0.552521        -1.031482         2.489323
 H        -2.380645         0.762628         1.177771
 H        -0.761980        -0.437866        -0.376689
 H        -0.328028         1.279881        -0.832635
 H         2.456694         0.004430         0.415419
 H        -0.962438         2.904073         0.636278
 H        -1.285507         2.842496         2.436824
