19
Iteration:  3743
 O         1.667124         2.752667         1.737419
 C         0.614014         1.877525         1.859867
 C         0.422731         1.044524         3.091247
 C        -0.290455         0.053715         2.304562
 C        -1.301425         0.869602         1.388361
 C        -0.580665         0.377903         0.068473
 C         0.592801         0.381176         1.077043
 O         1.895519        -0.236114         0.901533
 C        -0.775032         2.388949         1.413292
 H         2.429252         2.502583         2.272772
 H         1.407984         0.718918         3.385918
 H        -0.061846         1.533795         3.981831
 H        -0.738313        -0.922991         2.708850
 H        -2.361672         0.693687         1.452311
 H        -0.810662        -0.643788        -0.127615
 H        -0.629636         1.022772        -0.738686
 H         2.259073         0.470090         0.407414
 H        -0.853611         2.779928         0.367208
 H        -1.242735         3.047970         2.148307
