19
Iteration:  4894
 O         1.719139         2.696879         1.630171
 C         0.609551         1.804466         1.788729
 C         0.381593         1.137972         3.236891
 C        -0.291535         0.090738         2.313031
 C        -1.309766         0.871709         1.299675
 C        -0.556046         0.372703         0.059263
 C         0.613765         0.346411         1.150813
 O         1.902096        -0.169538         0.961994
 C        -0.807373         2.293877         1.451477
 H         1.662744         3.230237         0.804888
 H         1.285706         0.668408         3.593518
 H        -0.227593         1.739868         3.815729
 H        -0.778206        -0.885026         2.723574
 H        -2.391340         0.636058         1.547492
 H        -0.805490        -0.654224        -0.266844
 H        -0.486059         1.185416        -0.820427
 H         2.635590         0.293206         1.305814
 H        -0.694345         2.804976         0.497867
 H        -1.235363         2.912660         2.243085
