19
Iteration:  4030charge 0 multiplicity 1
 O         1.739745         2.831828         1.644021
 C         0.657156         1.844790         1.829529
 C         0.435235         1.102932         3.181768
 C        -0.387323         0.132399         2.257280
 C        -1.306860         0.821907         1.325079
 C        -0.580486         0.398118         0.083108
 C         0.640167         0.353108         1.086964
 O         1.904933        -0.354864         0.932135
 C        -0.830888         2.301038         1.523769
 H         1.533030         3.630335         2.187553
 H         1.350202         0.539619         3.589645
 H        -0.035213         1.744352         3.906307
 H        -0.649580        -0.799075         2.572520
 H        -2.395000         0.708493         1.161129
 H        -0.924121        -0.566389        -0.339840
 H        -0.543264         1.276896        -0.674660
 H         2.568344         0.110866         0.498460
 H        -0.960154         2.831151         0.585111
 H        -1.193570         2.821071         2.360127
