19
Iteration:  3842
 O         1.648904         2.852539         1.589541
 C         0.713078         1.881370         1.815911
 C         0.481070         1.009584         3.190287
 C        -0.345996         0.041811         2.210962
 C        -1.348605         0.891224         1.232789
 C        -0.467926         0.407875         0.074890
 C         0.637243         0.406522         1.112387
 O         1.748541        -0.256100         1.048600
 C        -0.803379         2.349189         1.604640
 H         2.561582         2.582816         1.597882
 H         1.398950         0.606483         3.601116
 H        -0.275950         1.284885         4.019430
 H        -0.522881        -1.121723         2.372457
 H        -2.435001         0.701683         1.263531
 H        -0.581696        -0.664250        -0.125537
 H        -0.448240         0.995223        -0.853025
 H         2.128660        -0.089343         0.180908
 H        -0.893619         3.095107         0.777155
 H        -1.098509         2.613372         2.572287
