19
Iteration:  4997
 O         1.598717         2.935802         1.621357
 C         0.644377         1.850817         1.893358
 C         0.418192         1.112784         3.251004
 C        -0.323726         0.125488         2.292386
 C        -1.340754         0.865981         1.243963
 C        -0.518967         0.280905         0.065500
 C         0.581305         0.376079         1.118125
 O         1.867832        -0.318404         0.960140
 C        -0.693091         2.292863         1.431136
 H         2.496326         2.618860         1.861498
 H         1.265758         0.715397         3.835569
 H        -0.096993         1.712746         4.046024
 H        -0.600106        -0.854187         2.697535
 H        -2.422076         0.754588         1.229622
 H        -0.622389        -0.851443         0.092619
 H        -0.614711         0.729783        -0.962136
 H         2.397766         0.094142         0.211583
 H        -0.575020         2.866842         0.447547
 H        -1.322649         2.869789         2.206700
