19
Iteration:   894charge 0 multiplicity 1
 O         1.629385         2.766173         1.677865
 C         0.620675         1.769150         1.891209
 C         0.521310         0.888826         3.170779
 C        -0.352604         0.019628         2.181039
 C        -1.365791         0.941587         1.282620
 C        -0.460939         0.604179         0.015372
 C         0.598540         0.458669         1.088327
 O         1.888421        -0.152388         0.771757
 C        -0.860420         2.328702         1.756533
 H         2.497626         2.321911         1.618852
 H         1.399437         0.247652         3.442419
 H         0.214049         1.336210         4.106140
 H        -0.769489        -0.978090         2.390467
 H        -2.360515         0.766047         1.371122
 H        -0.576526        -0.352217        -0.460784
 H        -0.160459         1.380721        -0.613439
 H         1.841735        -0.999360         1.133039
 H        -0.997766         3.037775         0.986990
 H        -1.202597         2.692203         2.707758
