19
Iteration:  1399charge 0 multiplicity 1
 O         1.789198         2.716430         1.929251
 C         0.721140         1.777579         1.932226
 C         0.293035         0.986808         3.219096
 C        -0.371688         0.024980         2.263139
 C        -1.360286         0.928500         1.350925
 C        -0.582844         0.315790         0.178481
 C         0.620493         0.413277         1.074645
 O         1.880149        -0.029364         0.490384
 C        -0.646396         2.369800         1.457232
 H         1.348107         3.570176         1.922100
 H         1.145327         0.659153         3.729168
 H        -0.408049         1.369304         3.975752
 H        -0.697787        -0.998248         2.314957
 H        -2.398314         0.790164         1.403358
 H        -0.956258        -0.682094         0.180354
 H        -0.652203         0.804750        -0.726251
 H         1.837950        -0.986746         0.770666
 H        -0.422597         2.863679         0.457739
 H        -0.990623         3.211310         2.059877
