19
Iteration:  1307
 O         1.603759         2.800534         1.584234
 C         0.665872         1.789030         1.924296
 C         0.378861         0.869147         3.167559
 C        -0.371680         0.036088         2.165346
 C        -1.298331         0.993538         1.338913
 C        -0.599634         0.524879         0.023705
 C         0.654815         0.467819         1.062659
 O         1.947744        -0.164553         0.889963
 C        -0.700418         2.277006         1.727959
 H         2.408973         2.515454         2.076540
 H         1.297135         0.358549         3.668245
 H        -0.279737         1.205723         4.008327
 H        -0.641303        -1.083621         2.240654
 H        -2.453769         0.911381         1.218516
 H        -0.878081        -0.531814        -0.100836
 H        -0.445335         1.264622        -0.735164
 H         1.965096        -0.619918        -0.000597
 H        -0.776739         3.037984         0.971099
 H        -1.187767         2.676504         2.653047
