19
Iteration:  1245
 O         1.821443         2.673798         1.940166
 C         0.675756         1.841622         1.878202
 C         0.375444         0.961811         3.147258
 C        -0.325684         0.060596         2.189299
 C        -1.345433         0.897266         1.402003
 C        -0.664629         0.300885         0.126949
 C         0.605389         0.508003         0.984593
 O         1.903081        -0.141110         0.637601
 C        -0.753676         2.378101         1.544200
 H         1.669077         3.346664         2.637531
 H         1.247682         0.739531         3.759373
 H        -0.323123         1.444486         3.826862
 H        -0.584728        -1.076777         2.304547
 H        -2.406614         0.849994         1.616768
 H        -0.807663        -0.791758         0.056274
 H        -0.667618         0.663858        -0.901153
 H         2.067692         0.365964        -0.199977
 H        -0.775585         2.905889         0.577526
 H        -1.222896         3.036523         2.321714
