19
Iteration:  3557charge 0 multiplicity 1
 O         1.733171         2.727776         1.724599
 C         0.649780         1.751178         1.841280
 C         0.479918         0.999822         3.106656
 C        -0.367852         0.051969         2.190093
 C        -1.311687         0.976817         1.327303
 C        -0.539223         0.359615         0.058231
 C         0.651068         0.459690         1.007227
 O         1.827487        -0.256997         0.963083
 C        -0.797397         2.390279         1.607052
 H         1.326503         3.537387         1.338360
 H         1.265660         0.489085         3.528314
 H         0.023606         1.501388         3.927106
 H        -0.490769        -0.999066         2.537946
 H        -2.373569         0.829151         1.529660
 H        -0.895633        -0.675489         0.047356
 H        -0.778663         0.959354        -0.845107
 H         2.539598         0.486334         0.708927
 H        -0.870972         2.964785         0.621757
 H        -1.301136         2.884578         2.465047
