19
Iteration:  2516charge 0 multiplicity 1
 O         1.817836         2.683953         1.688930
 C         0.606998         1.896156         1.852234
 C         0.420907         1.091663         3.229587
 C        -0.346068         0.012126         2.240741
 C        -1.380371         0.876283         1.310988
 C        -0.486199         0.380189         0.063278
 C         0.614497         0.352844         1.052822
 O         1.876382        -0.172187         0.862348
 C        -0.872897         2.327821         1.625844
 H         1.739825         3.355298         0.983893
 H         1.336704         0.610670         3.678700
 H        -0.207685         1.579318         4.030044
 H        -0.750725        -1.034838         2.661739
 H        -2.437877         0.653351         1.376460
 H        -0.665311        -0.621166        -0.300293
 H        -0.444390         1.023823        -0.778528
 H         2.375345         0.398415         0.326278
 H        -0.865391         3.013498         0.742558
 H        -1.280470         2.971598         2.471826
