19
Iteration:  2648charge 0 multiplicity 1
 O         1.526934         2.918260         1.787159
 C         0.666980         1.881114         1.842168
 C         0.449574         0.986568         3.223969
 C        -0.311937         0.156885         2.183013
 C        -1.285675         0.973879         1.286611
 C        -0.553787         0.257466         0.088562
 C         0.676604         0.420854         0.960346
 O         1.853945        -0.303950         0.925109
 C        -0.715147         2.348055         1.567833
 H         2.425051         2.606737         1.580921
 H         1.395902         0.565910         3.671482
 H        -0.190646         1.387986         4.007562
 H        -0.638176        -0.909300         2.268558
 H        -2.276835         0.666864         1.319681
 H        -0.650546        -0.842427         0.089085
 H        -0.687069         0.677013        -0.891743
 H         1.843760        -0.739683        -0.010896
 H        -0.770473         3.097642         0.724885
 H        -1.083126         2.765987         2.534884
