19
Iteration:   210
 O         1.857517         2.579853         1.916312
 C         0.612373         1.876620         1.936641
 C         0.318978         1.015794         3.131456
 C        -0.305795        -0.017763         2.136201
 C        -1.382407         0.882524         1.298450
 C        -0.597826         0.432476         0.047919
 C         0.621090         0.436818         0.983187
 O         1.950374        -0.068799         0.699279
 C        -0.808028         2.358139         1.689290
 H         1.753874         3.300774         2.588642
 H         1.219037         0.620605         3.533839
 H        -0.288897         1.461098         3.889941
 H        -0.663238        -1.038241         2.359594
 H        -2.399667         0.766179         1.443768
 H        -0.764186        -0.590974        -0.079731
 H        -0.792812         0.874979        -0.930359
 H         2.208643         0.229337        -0.250295
 H        -0.825290         3.086036         0.873372
 H        -1.278289         2.685133         2.558475
