19
Iteration:  1569
 O         1.752918         2.611747         1.874890
 C         0.601228         1.821407         1.930673
 C         0.444002         1.059749         3.271425
 C        -0.369972         0.019936         2.316043
 C        -1.334556         0.955522         1.300245
 C        -0.572754         0.399513         0.115710
 C         0.636976         0.367897         1.097495
 O         1.915388        -0.010993         0.567640
 C        -0.741132         2.340079         1.441856
 H         1.792812         3.093251         2.729978
 H         1.326057         0.516497         3.541804
 H        -0.076493         1.438952         4.160304
 H        -0.986062        -0.905951         2.453262
 H        -2.331780         0.734242         1.320177
 H        -0.863013        -0.549110        -0.340321
 H        -0.652103         1.035685        -0.815767
 H         1.690999        -0.774517         0.108040
 H        -0.636176         2.688835         0.484076
 H        -1.327034         2.937565         2.110110
