19
Iteration:  4329charge 0 multiplicity 1
 O         1.657550         2.805777         1.612166
 C         0.713318         1.835793         1.896552
 C         0.451405         1.145583         3.150077
 C        -0.408847         0.166857         2.294485
 C        -1.370053         0.861821         1.311716
 C        -0.531501         0.343420         0.028612
 C         0.634657         0.365035         1.063686
 O         1.854230        -0.295180         0.949539
 C        -0.737497         2.203872         1.482839
 H         1.675316         3.411761         2.400541
 H         1.342814         0.727154         3.525423
 H         0.133125         1.834759         3.970244
 H        -0.772471        -0.810467         2.697251
 H        -2.403395         0.749683         1.331568
 H        -0.793852        -0.723527        -0.048197
 H        -0.454331         1.087466        -0.688975
 H         2.531510         0.286851         0.764252
 H        -0.712296         2.752192         0.596716
 H        -1.169539         2.827821         2.236301
