19
Iteration:  2980charge 0 multiplicity 1
 O         1.746839         2.767791         1.806585
 C         0.605372         1.822752         1.781515
 C         0.515545         1.068743         3.111807
 C        -0.362031         0.117983         2.282216
 C        -1.309004         0.885036         1.262628
 C        -0.464702         0.403433         0.097412
 C         0.589661         0.380931         1.089071
 O         1.759938        -0.257638         0.785717
 C        -0.794506         2.299468         1.615826
 H         1.800970         3.278883         0.965542
 H         1.411312         0.530441         3.426698
 H         0.143754         1.578779         4.016050
 H        -0.681971        -0.850350         2.693897
 H        -2.444772         0.607561         1.339879
 H        -0.794517        -0.486707        -0.440139
 H        -0.489688         1.246626        -0.657415
 H         2.444952        -0.084761         1.556858
 H        -0.876150         3.009156         0.776727
 H        -1.401395         2.654242         2.472316
