19
Iteration:  4125
 O         1.722709         2.463116         1.512655
 C         0.575155         1.797321         1.853070
 C         0.391366         1.137591         3.250916
 C        -0.322016         0.079733         2.300451
 C        -1.382082         0.888063         1.277793
 C        -0.579743         0.385031         0.071255
 C         0.609452         0.410364         1.096709
 O         2.009788        -0.045319         0.976322
 C        -0.844294         2.355963         1.503255
 H         2.227447         2.744221         2.283089
 H         1.300532         0.629954         3.527062
 H        -0.150990         1.601947         4.072856
 H        -0.761911        -0.896134         2.559957
 H        -2.410485         0.690102         1.391023
 H        -0.702026        -0.630802        -0.289109
 H        -0.620720         1.287111        -0.593178
 H         2.622923         0.773312         0.745710
 H        -0.682558         2.799145         0.463296
 H        -1.330614         3.048730         2.283597
