19
Iteration:  1324charge 0 multiplicity 1
 O         1.589466         2.842510         1.667616
 C         0.693363         1.771934         1.913078
 C         0.521719         0.791884         3.204322
 C        -0.350962        -0.005712         2.128460
 C        -1.370458         0.985696         1.252153
 C        -0.562374         0.535755        -0.012284
 C         0.600589         0.420824         1.001349
 O         1.900054        -0.140587         1.011500
 C        -0.762274         2.371093         1.725701
 H         2.226700         2.460692         1.002940
 H         1.412495         0.253053         3.343076
 H         0.183992         1.369808         4.065981
 H        -0.689857        -0.968098         2.310224
 H        -2.409572         0.776620         1.410509
 H        -0.896444        -0.514292        -0.177527
 H        -0.466575         1.280382        -0.930269
 H         1.991163        -0.928694         0.434624
 H        -0.700005         3.216356         0.983400
 H        -1.137592         2.767508         2.659433
