19
Iteration:  3032
 O         1.812554         2.684045         1.739407
 C         0.601823         1.835874         1.879513
 C         0.386471         1.060075         3.214466
 C        -0.408284         0.007500         2.289972
 C        -1.341147         0.908830         1.341115
 C        -0.540918         0.341618         0.054173
 C         0.604765         0.443749         1.097437
 O         1.852152        -0.194400         0.747422
 C        -0.698644         2.374449         1.537275
 H         1.537076         3.447986         1.208798
 H         1.295080         0.600792         3.567036
 H        -0.300445         1.523213         3.944511
 H        -0.482449        -0.889330         2.821529
 H        -2.459901         0.785941         1.421459
 H        -0.886395        -0.752458         0.051650
 H        -0.416575         0.799532        -0.989607
 H         2.541726         0.550782         0.735203
 H        -0.909048         2.956817         0.599042
 H        -1.213028         2.860605         2.397850
