19
Iteration:  1039charge 0 multiplicity 1
 O         1.682376         2.665916         1.688606
 C         0.663736         1.756654         1.927478
 C         0.574178         0.883544         3.105545
 C        -0.444909         0.052533         2.168039
 C        -1.349596         0.956261         1.280781
 C        -0.473145         0.572400         0.066598
 C         0.605366         0.443955         1.044044
 O         1.822351        -0.127385         0.832954
 C        -0.797633         2.292275         1.792885
 H         1.449053         3.061421         0.827679
 H         1.461866         0.152709         3.256516
 H         0.233179         1.390523         4.116953
 H        -0.828132        -1.018215         2.359128
 H        -2.512971         0.785438         1.195185
 H        -0.551752        -0.331465        -0.593336
 H        -0.251624         1.362434        -0.737649
 H         2.494637         0.030069         1.491801
 H        -1.088801         3.024095         0.951968
 H        -1.232583         2.823338         2.678475
