19
Iteration:  1164
 O         1.759866         2.646762         1.585355
 C         0.692583         1.745905         1.935257
 C         0.399622         0.965123         3.231586
 C        -0.306801         0.021553         2.122079
 C        -1.375160         0.912813         1.379294
 C        -0.492772         0.602379        -0.059784
 C         0.641797         0.484411         1.045470
 O         1.837462        -0.185384         0.830758
 C        -0.841973         2.255087         1.803242
 H         1.354714         3.391840         1.095864
 H         1.308611         0.368708         3.596965
 H        -0.217438         1.439662         4.077564
 H        -0.591877        -1.021101         2.430918
 H        -2.480747         0.856579         1.297120
 H        -0.829974        -0.372196        -0.490461
 H        -0.410346         1.463833        -0.801373
 H         2.483833         0.359247         1.278792
 H        -1.029333         3.074786         1.069939
 H        -1.161121         2.590385         2.809924
