19
Iteration:   213charge 0 multiplicity 1
 O         1.845233         2.588238         1.911291
 C         0.617545         1.871500         1.954070
 C         0.311042         0.993899         3.147988
 C        -0.290929        -0.023697         2.123948
 C        -1.363817         0.891197         1.303346
 C        -0.594853         0.437881         0.044742
 C         0.605204         0.442830         0.973506
 O         1.954130        -0.080496         0.694553
 C        -0.811697         2.380896         1.668263
 H         1.764224         3.369079         2.466989
 H         1.292350         0.638169         3.613970
 H        -0.333350         1.398712         3.976263
 H        -0.685689        -1.124687         2.467227
 H        -2.482407         0.770088         1.435403
 H        -0.767549        -0.669931        -0.120723
 H        -0.767766         0.907318        -0.915640
 H         2.231816         0.183800        -0.187328
 H        -0.891467         3.125477         0.849188
 H        -1.223752         2.731537         2.643375
