19
Iteration:  1263
 O         1.823013         2.563660         1.962852
 C         0.572666         1.855765         1.881997
 C         0.379408         1.101929         3.191156
 C        -0.225809         0.080870         2.296012
 C        -1.348889         0.863257         1.304206
 C        -0.556991         0.406394         0.083739
 C         0.661790         0.445252         1.019450
 O         1.804196        -0.092885         0.607654
 C        -0.811747         2.310765         1.481748
 H         1.934221         3.087564         2.779410
 H         1.418235         0.641288         3.514613
 H         0.102235         1.571233         4.162109
 H        -0.535046        -0.984592         2.631950
 H        -2.468742         0.576441         1.536591
 H        -0.901773        -0.671807        -0.070504
 H        -0.689426         1.158342        -0.723558
 H         1.929088        -0.049765        -0.374735
 H        -0.881906         2.893473         0.564368
 H        -1.396394         2.863340         2.263621
