19
Iteration:  3021charge 0 multiplicity 1
 O         1.756551         2.715468         1.684798
 C         0.696651         1.850409         1.909674
 C         0.241913         0.989157         3.208746
 C        -0.282772         0.053640         2.275762
 C        -1.288471         0.938330         1.369228
 C        -0.538744         0.382942         0.174530
 C         0.641534         0.376604         1.059164
 O         1.842087        -0.229685         0.732798
 C        -0.767943         2.385444         1.528869
 H         1.425987         3.403574         1.107878
 H         1.140183         0.586640         3.667781
 H        -0.263459         1.411283         4.083690
 H        -0.696074        -0.913805         2.433206
 H        -2.387922         0.778814         1.336177
 H        -0.825703        -0.705669        -0.091958
 H        -0.504936         0.951523        -0.822378
 H         2.535730         0.339961         0.950010
 H        -0.774379         2.933736         0.535060
 H        -1.063641         3.106328         2.322064
