19
Iteration:  4105charge 0 multiplicity 1
 O         1.728392         2.570815         1.574910
 C         0.622671         1.817712         1.779958
 C         0.325747         1.134730         3.209586
 C        -0.346364         0.043192         2.329074
 C        -1.334731         0.863643         1.332425
 C        -0.461823         0.390880         0.118087
 C         0.562490         0.337895         1.100452
 O         1.905798        -0.069435         0.866347
 C        -0.763642         2.354737         1.499236
 H         2.135401         2.867601         2.386301
 H         1.252592         0.894863         3.787784
 H        -0.301238         1.753114         3.805979
 H        -0.573933        -0.905417         2.678217
 H        -2.398395         0.642258         1.455385
 H        -0.923847        -0.518809        -0.171861
 H        -0.375101         0.895262        -0.873685
 H         2.571801         0.687264         1.044207
 H        -0.946476         2.956148         0.582952
 H        -1.253722         2.774524         2.323362
