19
Iteration:  1331
 O         1.633442         2.818372         1.709346
 C         0.636026         1.765357         1.880251
 C         0.541712         0.800918         3.145812
 C        -0.356274         0.057229         2.167455
 C        -1.356122         0.959057         1.281213
 C        -0.550788         0.546453        -0.016873
 C         0.590127         0.461436         1.009594
 O         1.868242        -0.128698         1.007366
 C        -0.769118         2.334201         1.693932
 H         2.033773         2.530422         0.850486
 H         1.509974         0.268882         3.223832
 H         0.342442         1.238715         4.138260
 H        -0.706854        -1.045688         2.319786
 H        -2.368507         0.597774         1.309575
 H        -0.861638        -0.445268        -0.289403
 H        -0.237683         1.212809        -0.724669
 H         1.914565        -0.986668         0.679673
 H        -0.724866         3.152880         0.970360
 H        -1.174390         2.750241         2.640148
