19
Iteration:  3671charge 0 multiplicity 1
 O         1.709284         2.698042         1.574570
 C         0.641649         1.830647         1.866485
 C         0.546569         0.997360         3.177743
 C        -0.343179         0.032450         2.265778
 C        -1.374671         0.891162         1.259862
 C        -0.581300         0.485237         0.035573
 C         0.640585         0.412312         1.037843
 O         1.830094        -0.202687         1.015908
 C        -0.775965         2.305443         1.560611
 H         1.695136         3.440336         2.215725
 H         1.452437         0.520975         3.616883
 H        -0.029470         1.408766         4.007479
 H        -0.706218        -0.920917         2.622190
 H        -2.469356         0.698537         1.309984
 H        -0.855388        -0.575115        -0.202364
 H        -0.660916         1.276251        -0.809646
 H         2.572107         0.313522         0.809187
 H        -0.856341         2.935426         0.661650
 H        -1.229476         2.903803         2.384136
