19
Iteration:  4143charge 0 multiplicity 1
 O         1.857866         2.649401         1.483568
 C         0.629802         1.843629         1.870521
 C         0.399375         0.971796         3.153283
 C        -0.425270         0.075267         2.272058
 C        -1.383559         0.862111         1.370632
 C        -0.528407         0.388087         0.059309
 C         0.624166         0.443614         1.159427
 O         1.849051        -0.053693         1.032374
 C        -0.823520         2.283331         1.431064
 H         2.199486         2.991750         2.330836
 H         1.305839         0.487469         3.507964
 H        -0.148361         1.540134         3.990193
 H        -0.522954        -1.051158         2.543147
 H        -2.478317         0.756760         1.321615
 H        -0.806946        -0.707845         0.073938
 H        -0.336715         0.942830        -0.855868
 H         2.327915         0.808622         0.685344
 H        -0.957196         2.854629         0.522285
 H        -1.218323         2.819492         2.339549
