19
Iteration:  4888charge 0 multiplicity 1
 O         1.748572         2.752898         1.674260
 C         0.655396         1.850754         1.786440
 C         0.382561         1.139919         3.187683
 C        -0.334192         0.070503         2.350243
 C        -1.325490         0.839727         1.304950
 C        -0.577449         0.333005         0.009520
 C         0.642084         0.372810         1.113999
 O         1.897267        -0.213566         0.962443
 C        -0.821939         2.310559         1.492045
 H         1.727609         2.962388         0.717776
 H         1.363235         0.745079         3.549988
 H        -0.249821         1.800306         3.911085
 H        -0.693987        -0.821932         2.748594
 H        -2.363683         0.583512         1.302760
 H        -0.992784        -0.629356        -0.286813
 H        -0.452090         1.044634        -0.714619
 H         2.543031         0.423588         1.358857
 H        -0.861151         2.729464         0.458792
 H        -1.216258         2.910725         2.346689
