19
Iteration:  3570charge 0 multiplicity 1
 O         1.728895         2.631919         1.746448
 C         0.612121         1.861723         1.880761
 C         0.487831         1.007500         3.210867
 C        -0.301847         0.130584         2.267561
 C        -1.384135         0.914865         1.345836
 C        -0.554732         0.373283         0.072452
 C         0.578891         0.379769         1.051381
 O         1.860123        -0.203344         0.831007
 C        -0.775528         2.350919         1.500099
 H         1.446825         3.543705         1.610839
 H         1.448962         0.641895         3.359424
 H         0.029200         1.513358         4.059494
 H        -0.778649        -0.865849         2.444485
 H        -2.406460         0.685171         1.398628
 H        -0.781499        -0.640537        -0.302414
 H        -0.350809         0.946514        -0.907291
 H         2.525864         0.451575         0.904190
 H        -0.706794         2.962068         0.555618
 H        -1.216670         3.060715         2.208741
