19
Iteration:  2712
 O         1.739662         2.611068         1.613242
 C         0.616911         1.840066         1.847043
 C         0.333775         1.063047         3.237613
 C        -0.277438         0.029605         2.233913
 C        -1.386951         0.868338         1.316268
 C        -0.550522         0.415687         0.047791
 C         0.584646         0.437765         1.078447
 O         1.960111         0.021987         0.903981
 C        -0.793158         2.351851         1.588667
 H         2.372136         1.868822         1.514985
 H         1.311245         0.840967         3.738839
 H        -0.429480         1.426050         3.935513
 H        -0.582007        -1.106930         2.327529
 H        -2.423649         0.802810         1.282821
 H        -0.891576        -0.641954        -0.226853
 H        -0.547618         1.204272        -0.788025
 H         2.289645        -0.896549         1.113866
 H        -0.846169         2.867319         0.620267
 H        -1.187908         2.834384         2.521185
