19
Iteration:  4161charge 0 multiplicity 1
 O         1.719297         2.726747         1.558000
 C         0.644556         1.874222         1.823092
 C         0.419445         1.048433         3.188944
 C        -0.369503         0.093773         2.243036
 C        -1.348232         0.866684         1.270354
 C        -0.546832         0.279095         0.095067
 C         0.641042         0.447630         1.064615
 O         1.818212        -0.225144         0.974366
 C        -0.726959         2.364153         1.560441
 H         1.928744         3.133850         2.427142
 H         1.417263         0.626084         3.530891
 H         0.010857         1.573370         4.033417
 H        -0.659654        -0.892654         2.504190
 H        -2.476009         0.700521         1.359373
 H        -0.694210        -0.794433        -0.162672
 H        -0.560911         0.901412        -0.836688
 H         2.493721         0.521825         1.226042
 H        -0.728865         3.026306         0.676912
 H        -1.310065         2.875201         2.282723
