19
Iteration:  2172
 O         1.784436         2.541911         1.938413
 C         0.617997         1.813794         1.857233
 C         0.327172         1.082947         3.186086
 C        -0.260623        -0.015640         2.357309
 C        -1.356693         0.916020         1.387447
 C        -0.595749         0.394613         0.106927
 C         0.606511         0.365027         1.093356
 O         1.891430         0.033815         0.614812
 C        -0.798514         2.289491         1.361018
 H         2.165312         2.960872         1.147270
 H         1.280394         0.709846         3.681572
 H        -0.185502         1.667272         3.981041
 H        -0.674527        -0.904809         2.719526
 H        -2.471425         0.985512         1.433179
 H        -0.972883        -0.660713        -0.148838
 H        -0.401743         1.047266        -0.817606
 H         2.587482         0.516238         1.095175
 H        -0.726010         2.693035         0.336123
 H        -1.309973         3.002520         2.045579
