19
Iteration:  3136charge 0 multiplicity 1
 O         1.709115         2.693740         1.796878
 C         0.602842         1.858420         1.803817
 C         0.461926         1.077942         3.138009
 C        -0.263608         0.084227         2.329638
 C        -1.305768         0.919141         1.322303
 C        -0.496443         0.440003         0.067687
 C         0.589649         0.360168         1.122937
 O         1.806277        -0.286807         0.804921
 C        -0.842496         2.314948         1.504755
 H         1.670220         3.438271         1.189700
 H         1.390261         0.651386         3.533829
 H         0.016299         1.598988         3.962220
 H        -0.548405        -0.951618         2.640971
 H        -2.303697         0.639515         1.332204
 H        -0.730600        -0.559647        -0.276555
 H        -0.409138         1.168369        -0.822418
 H         2.476716         0.441877         0.963231
 H        -0.849457         2.907055         0.582496
 H        -1.328529         2.876516         2.314013
