19
Iteration:  3960
 O         1.788508         2.576460         1.586396
 C         0.672892         1.734135         1.789390
 C         0.411519         1.095620         3.172696
 C        -0.462361         0.097282         2.345187
 C        -1.375858         0.869917         1.311033
 C        -0.630823         0.386003         0.093850
 C         0.652181         0.395909         1.033509
 O         1.976361        -0.045279         0.955439
 C        -0.788140         2.291763         1.506994
 H         1.622655         3.332056         2.208187
 H         1.281079         0.590752         3.492026
 H         0.005732         1.802797         3.961761
 H        -0.686850        -1.027187         2.675434
 H        -2.460325         0.821470         1.396558
 H        -1.031756        -0.605381        -0.351938
 H        -0.838797         1.212455        -0.745756
 H         2.613346         0.684656         1.246657
 H        -0.671907         2.836825         0.549014
 H        -1.231638         2.785201         2.374364
