19
Iteration:   328
 O         1.703252         2.669784         1.976770
 C         0.635553         1.759594         1.968234
 C         0.333535         0.959766         3.217692
 C        -0.356406        -0.033560         2.269050
 C        -1.336666         0.903656         1.376477
 C        -0.572611         0.489747         0.077699
 C         0.610423         0.428580         1.071291
 O         1.885650         0.056083         0.461895
 C        -0.685014         2.277307         1.535678
 H         2.269378         2.553122         1.208873
 H         1.244818         0.564073         3.654196
 H        -0.221063         1.500163         4.011532
 H        -0.514137        -0.971166         2.496743
 H        -2.386447         0.827288         1.390608
 H        -0.845181        -0.433266        -0.416479
 H        -0.646651         1.260166        -0.760142
 H         2.297838        -0.664241         1.003343
 H        -0.413660         2.673633         0.551207
 H        -1.170484         3.052833         2.164653
