19
Iteration:  2569
 O         1.765451         2.667678         1.509276
 C         0.674184         1.837242         1.846327
 C         0.314893         0.965593         3.213297
 C        -0.361618         0.062540         2.248052
 C        -1.318066         0.945205         1.365406
 C        -0.606017         0.321756         0.089985
 C         0.619868         0.409850         1.052806
 O         1.947213        -0.075177         0.915888
 C        -0.782995         2.315772         1.556014
 H         1.942726         3.280345         2.251059
 H         1.120646         0.331956         3.664967
 H        -0.210781         1.520593         4.045945
 H        -0.666115        -1.051433         2.527328
 H        -2.348966         0.744619         1.532119
 H        -0.970773        -0.670031        -0.217222
 H        -0.504542         0.874457        -0.914098
 H         2.533959         0.720515         1.049045
 H        -0.936968         3.094341         0.784159
 H        -1.253918         2.765905         2.514221
