19
Iteration:  2339charge 0 multiplicity 1
 O         1.779146         2.719696         1.834417
 C         0.675969         1.823808         1.913294
 C         0.403693         1.019740         3.168272
 C        -0.292344         0.096915         2.238783
 C        -1.342020         0.901713         1.303461
 C        -0.602049         0.316904         0.103120
 C         0.638700         0.456269         1.076613
 O         1.827277        -0.186474         0.827416
 C        -0.780868         2.325929         1.454444
 H         1.558853         3.153606         0.983104
 H         1.274252         0.705729         3.703309
 H        -0.196916         1.513749         3.973058
 H        -0.481817        -1.017760         2.275437
 H        -2.427432         0.733822         1.401152
 H        -0.802686        -0.722367        -0.060458
 H        -0.848356         0.856645        -0.801397
 H         2.503193         0.550183         0.718324
 H        -0.682587         2.853748         0.512623
 H        -1.421344         2.932037         2.132888
