19
Iteration:  2720
 O         1.807338         2.652972         1.633616
 C         0.606323         1.843409         1.867328
 C         0.337622         0.974949         3.235164
 C        -0.336765         0.084530         2.204220
 C        -1.396825         0.846993         1.304085
 C        -0.541193         0.329513         0.092413
 C         0.637134         0.447910         1.088892
 O         1.936929         0.072982         0.878829
 C        -0.791307         2.365674         1.556589
 H         2.386596         2.029337         1.158000
 H         1.202390         0.646076         3.787528
 H        -0.357924         1.472464         3.957952
 H        -0.719148        -0.997674         2.228292
 H        -2.502550         0.687796         1.503461
 H        -0.914070        -0.693574        -0.144915
 H        -0.420460         0.843207        -0.918344
 H         1.854477        -0.869436         1.291521
 H        -0.888981         3.106597         0.767352
 H        -1.135733         2.850833         2.497639
