19
Iteration:  4951
 O         1.730892         2.660524         1.622914
 C         0.600832         1.824586         1.775611
 C         0.380425         1.208829         3.159002
 C        -0.325571         0.113920         2.329714
 C        -1.347012         0.869372         1.290697
 C        -0.563460         0.228211         0.101293
 C         0.641090         0.417825         1.075200
 O         1.908222        -0.143505         0.977316
 C        -0.824606         2.302589         1.469435
 H         2.257527         2.717304         2.448672
 H         1.218424         0.855387         3.626935
 H        -0.074823         1.784954         3.917818
 H        -0.474168        -0.871601         2.595630
 H        -2.431433         0.698106         1.284011
 H        -0.907225        -0.786487        -0.069070
 H        -0.474104         0.815313        -0.911898
 H         2.615500         0.527197         0.769978
 H        -0.916751         2.856965         0.525207
 H        -1.195799         2.932814         2.308219
