19
Iteration:  3616
 O         1.787595         2.489964         1.718824
 C         0.624956         1.845240         1.913111
 C         0.252399         1.170967         3.270533
 C        -0.326291         0.081212         2.279632
 C        -1.342998         0.936558         1.316999
 C        -0.559119         0.262699         0.130505
 C         0.654853         0.377897         1.090371
 O         1.902361        -0.039658         0.628967
 C        -0.699085         2.354786         1.527930
 H         1.851044         3.469763         1.759107
 H         1.105141         0.651485         3.785074
 H        -0.543003         1.668799         3.852462
 H        -0.457830        -0.989443         2.523425
 H        -2.390471         0.881692         1.646823
 H        -0.875249        -0.798413        -0.054141
 H        -0.719630         0.645558        -0.963727
 H         2.549612         0.496122         0.997150
 H        -0.977799         2.979279         0.677019
 H        -1.244290         2.821116         2.369366
