19
Iteration:  3344charge 0 multiplicity 1
 O         1.716371         2.747036         1.800013
 C         0.667481         1.832570         1.810842
 C         0.486909         1.069881         3.156174
 C        -0.356231         0.123424         2.256794
 C        -1.329311         0.894390         1.300644
 C        -0.556333         0.373297         0.064802
 C         0.586661         0.408459         1.050038
 O         1.810541        -0.296376         0.923202
 C        -0.731158         2.306028         1.525045
 H         1.468693         3.531848         1.257659
 H         1.383262         0.513235         3.463665
 H         0.114260         1.572140         3.999174
 H        -0.607072        -0.932463         2.397840
 H        -2.393844         0.700781         1.204420
 H        -0.856078        -0.591114        -0.292059
 H        -0.704407         1.079098        -0.717949
 H         2.439704         0.247726         0.469279
 H        -0.683845         3.144713         0.805973
 H        -1.221028         2.808322         2.391618
