19
Iteration:  2296charge 0 multiplicity 1
 O         1.638046         2.930746         1.957524
 C         0.643871         1.939264         1.865554
 C         0.492204         1.120052         3.150244
 C        -0.282423         0.081285         2.210226
 C        -1.270873         0.927078         1.256921
 C        -0.513818         0.358485         0.113131
 C         0.667044         0.285314         1.034159
 O         1.816466        -0.482374         0.769592
 C        -0.812625         2.336049         1.553678
 H         1.595088         3.641883         1.292612
 H         1.252621         0.550994         3.637770
 H        -0.069130         1.731492         3.907574
 H        -0.673509        -0.895893         2.658119
 H        -2.352095         0.731685         1.313949
 H        -0.868618        -0.659083        -0.112404
 H        -0.313610         0.953311        -0.907957
 H         2.013479        -0.167006        -0.206343
 H        -0.946172         2.975648         0.725947
 H        -1.400511         2.777118         2.375157
