19
Iteration:  3096
 O         1.709638         2.665120         1.616291
 C         0.686515         1.776839         1.889608
 C         0.337781         1.000876         3.248187
 C        -0.345022         0.100146         2.275067
 C        -1.333317         0.888561         1.309066
 C        -0.543770         0.439631         0.082420
 C         0.667221         0.418167         1.074789
 O         1.855606        -0.117959         0.841218
 C        -0.724149         2.311904         1.545753
 H         1.587054         2.973044         0.678888
 H         1.132320         0.445993         3.833231
 H        -0.340252         1.507216         4.009829
 H        -0.478318        -0.924569         2.555683
 H        -2.426060         0.830329         1.497275
 H        -1.017866        -0.576038         0.002097
 H        -0.632932         0.905984        -0.871205
 H         2.609196         0.414651         1.247799
 H        -0.730233         3.024782         0.679144
 H        -1.100518         2.798156         2.459767
