19
Iteration:  1656charge 0 multiplicity 1
 O         1.666159         2.752389         1.790267
 C         0.675501         1.801382         1.859867
 C         0.536475         0.882635         3.105853
 C        -0.397566         0.067726         2.262746
 C        -1.344110         0.919836         1.248498
 C        -0.448585         0.553808         0.056392
 C         0.588332         0.447982         1.086228
 O         1.832753        -0.119438         0.817939
 C        -0.778442         2.286365         1.700397
 H         1.892342         2.971966         0.866544
 H         1.332455         0.206408         3.302533
 H         0.150409         1.235996         4.083543
 H        -0.720708        -0.958977         2.525670
 H        -2.425703         0.790277         1.101116
 H        -0.681533        -0.449807        -0.291689
 H        -0.331297         1.259258        -0.804678
 H         1.579190        -1.038080         0.648235
 H        -0.997206         3.039411         0.859930
 H        -1.171546         2.699977         2.659354
