19
Iteration:  4005
 O         1.672534         2.640468         1.510178
 C         0.610860         1.889385         1.886686
 C         0.433235         1.025438         3.229435
 C        -0.264248         0.061557         2.256276
 C        -1.291103         0.861582         1.293024
 C        -0.444878         0.423876         0.075643
 C         0.594756         0.539613         1.131359
 O         1.744440        -0.243739         0.972452
 C        -0.799955         2.320958         1.559761
 H         1.719427         3.592917         1.771003
 H         1.348177         0.637610         3.620629
 H        -0.259877         1.439525         3.996161
 H        -0.404330        -1.069874         2.385583
 H        -2.343704         0.785188         1.061667
 H        -0.476112        -0.678070         0.057951
 H        -0.240241         1.002811        -0.916454
 H         2.525955         0.120963         0.539005
 H        -0.946305         2.911816         0.645051
 H        -1.080122         2.824728         2.446248
