19
Iteration:   491
 O         1.768969         2.739960         1.979231
 C         0.669665         1.848080         1.902553
 C         0.401833         0.976036         3.168472
 C        -0.277399         0.001751         2.193495
 C        -1.359874         0.841338         1.363863
 C        -0.715541         0.351497         0.048062
 C         0.552707         0.477586         1.021471
 O         1.853454        -0.089561         0.606800
 C        -0.696019         2.347571         1.547572
 H         2.503897         2.117176         2.187658
 H         1.314168         0.624642         3.639680
 H        -0.045256         1.692261         3.832730
 H        -0.485824        -0.987649         2.436248
 H        -2.474066         0.802681         1.439655
 H        -0.804825        -0.680905        -0.100740
 H        -0.888389         0.810222        -0.877501
 H         2.455978         0.623460         0.684603
 H        -0.644227         2.943417         0.617191
 H        -1.212294         2.914950         2.330655
