19
Iteration:   186charge 0 multiplicity 1
 O         1.793895         2.627785         1.924569
 C         0.666331         1.809383         1.925891
 C         0.438639         0.954087         3.200686
 C        -0.333210         0.020090         2.226615
 C        -1.390088         0.857204         1.312259
 C        -0.549303         0.444368         0.045823
 C         0.567609         0.486774         0.979754
 O         1.852059        -0.020789         0.713567
 C        -0.825881         2.332732         1.494926
 H         2.282234         2.359950         2.711079
 H         1.334638         0.444926         3.426031
 H        -0.028526         1.382359         4.062689
 H        -0.631180        -0.878060         2.551379
 H        -2.458589         0.765656         1.376718
 H        -0.643206        -0.569883        -0.266913
 H        -0.650318         1.107721        -0.833909
 H         2.302616         0.478879        -0.003105
 H        -1.001644         2.952630         0.628564
 H        -1.145208         2.780788         2.419988
