19
Iteration:   150charge 0 multiplicity 1
 O         1.559920         2.829091         1.778176
 C         0.672449         1.737120         1.907161
 C         0.376149         0.835665         3.207167
 C        -0.331398         0.016601         2.153968
 C        -1.349207         0.944381         1.368378
 C        -0.532487         0.579517         0.041736
 C         0.702464         0.463040         0.980282
 O         1.863697        -0.221172         0.798687
 C        -0.679421         2.319729         1.632451
 H         2.427143         2.643388         1.419221
 H         1.206825         0.228004         3.701955
 H        -0.220210         1.293109         4.048713
 H        -0.779353        -1.017300         2.281789
 H        -2.528430         0.817398         1.394659
 H        -0.715403        -0.550582        -0.250686
 H        -0.584105         1.224236        -0.862460
 H         2.593234         0.412543         0.607786
 H        -0.776351         3.071819         0.831635
 H        -1.122843         2.789970         2.619106
