19
Iteration:  4941charge 0 multiplicity 1
 O         1.780175         2.649167         1.554039
 C         0.664605         1.853833         1.868872
 C         0.375899         1.146413         3.238610
 C        -0.362810         0.162744         2.278020
 C        -1.341561         0.869471         1.280612
 C        -0.546440         0.212128         0.117283
 C         0.570494         0.378090         1.144563
 O         1.929050        -0.110631         0.949419
 C        -0.814501         2.286617         1.415289
 H         2.054520         3.121767         2.369258
 H         1.264457         0.747870         3.580654
 H        -0.305731         1.685300         3.865248
 H        -0.650574        -0.762066         2.571424
 H        -2.425445         0.762683         1.283464
 H        -0.814475        -0.813861        -0.113888
 H        -0.480030         0.826361        -0.838342
 H         2.503320         0.606406         0.642315
 H        -1.076310         3.008545         0.618432
 H        -1.374701         2.673165         2.357414
