19
Iteration:  1693charge 0 multiplicity 1
 O         1.749287         2.720570         1.959271
 C         0.652916         1.844858         1.890217
 C         0.275523         0.991103         3.179369
 C        -0.268350         0.045588         2.219519
 C        -1.324681         0.869655         1.409488
 C        -0.627402         0.434509         0.077336
 C         0.669552         0.457708         1.001984
 O         1.903307        -0.099422         0.604840
 C        -0.723873         2.318681         1.567011
 H         2.486902         2.415771         1.390716
 H         1.175959         0.690825         3.811675
 H        -0.492308         1.484912         3.769789
 H        -0.460579        -0.951477         2.643711
 H        -2.411117         0.691474         1.596875
 H        -0.979113        -0.637093        -0.055348
 H        -0.830281         1.183935        -0.781528
 H         1.761747        -0.868562         0.116762
 H        -0.781316         2.843082         0.637839
 H        -1.162847         3.062707         2.222761
