19
Iteration:  2536charge 0 multiplicity 1
 O         1.749339         2.452512         1.610971
 C         0.596496         1.819267         1.879183
 C         0.466427         1.007499         3.164678
 C        -0.334287         0.081831         2.298817
 C        -1.339885         0.889423         1.337238
 C        -0.526804         0.484917         0.113484
 C         0.583458         0.487755         1.108703
 O         1.896270        -0.039219         0.947844
 C        -0.859257         2.294345         1.442426
 H         1.494434         3.343551         1.348605
 H         1.399561         0.400883         3.237335
 H         0.296154         1.597459         4.125037
 H        -0.539640        -1.061944         2.581997
 H        -2.358614         0.619522         1.329317
 H        -0.774146        -0.524898        -0.247593
 H        -0.445061         1.322932        -0.662193
 H         2.578762         0.604571         0.829091
 H        -1.028055         2.926253         0.531140
 H        -1.400693         2.760002         2.369290
