19
Iteration:  3738charge 0 multiplicity 1
 O         1.666362         2.761671         1.710193
 C         0.597901         1.912425         1.832512
 C         0.440038         1.038545         3.171828
 C        -0.293744         0.042728         2.295203
 C        -1.314378         0.849333         1.376502
 C        -0.552703         0.379099         0.066701
 C         0.592808         0.352523         1.072923
 O         1.844160        -0.232547         0.908787
 C        -0.751088         2.357659         1.439514
 H         2.361728         2.558345         2.366307
 H         1.514019         0.789865         3.413828
 H        -0.012532         1.558831         3.999449
 H        -0.682762        -0.852979         2.666934
 H        -2.412315         0.654007         1.366391
 H        -0.805275        -0.651852        -0.347083
 H        -0.524507         1.197290        -0.773988
 H         2.358671         0.475403         0.333979
 H        -0.825577         2.825523         0.466750
 H        -1.185570         3.176828         2.059098
