19
Iteration:  1979
 O         1.717563         2.789076         1.856115
 C         0.621495         1.890025         1.959281
 C         0.378176         0.999764         3.139298
 C        -0.293151         0.074393         2.211096
 C        -1.308521         0.916304         1.247843
 C        -0.548862         0.400368         0.051420
 C         0.678517         0.366979         1.059672
 O         1.890132        -0.202701         0.668164
 C        -0.794871         2.359400         1.684454
 H         1.780948         3.104332         0.940124
 H         1.274081         0.557253         3.465181
 H        -0.279736         1.468759         3.923261
 H        -0.600969        -0.905980         2.519396
 H        -2.458989         0.786147         1.525054
 H        -0.912601        -0.554720        -0.086002
 H        -0.398947         0.882518        -0.890011
 H         1.886979        -1.101854         1.036930
 H        -0.790615         3.118215         0.853780
 H        -1.422940         2.575074         2.600824
