19
Iteration:  4001charge 0 multiplicity 1
 O         1.680935         2.622959         1.496961
 C         0.574036         1.878641         1.870466
 C         0.428418         1.005416         3.223647
 C        -0.279974         0.058925         2.247518
 C        -1.266838         0.855472         1.296429
 C        -0.434520         0.419411         0.081250
 C         0.611077         0.523110         1.132074
 O         1.746305        -0.215742         0.981569
 C        -0.780686         2.341999         1.566044
 H         1.680197         3.539704         1.759092
 H         1.385106         0.650590         3.625545
 H        -0.227534         1.484192         3.972365
 H        -0.403390        -1.053985         2.379830
 H        -2.319061         0.796141         0.982851
 H        -0.600788        -0.675360         0.116128
 H        -0.308703         1.067834        -0.706050
 H         2.528963         0.189247         0.546851
 H        -1.003145         2.920306         0.655474
 H        -1.204795         2.952395         2.515673
