19
Iteration:  2547charge 0 multiplicity 1
 O         1.757673         2.499997         1.549879
 C         0.570178         1.762812         1.846890
 C         0.524121         1.033798         3.185979
 C        -0.371579        -0.012475         2.259411
 C        -1.408774         0.854819         1.328520
 C        -0.555668         0.464962         0.109260
 C         0.623880         0.456107         1.062334
 O         1.872612         0.019721         0.980921
 C        -0.788185         2.313123         1.521198
 H         1.728393         3.468781         1.632711
 H         1.442246         0.475635         3.480424
 H         0.128101         1.574554         4.112798
 H        -0.657974        -1.115331         2.608697
 H        -2.467584         0.775542         1.346896
 H        -0.707831        -0.524430        -0.350114
 H        -0.611472         1.174812        -0.798938
 H         2.384840         0.805857         1.399179
 H        -0.645858         2.868360         0.552839
 H        -1.220160         3.081820         2.270880
