19
Iteration:  4764
 O         1.747498         2.611656         1.493240
 C         0.603310         1.794256         1.809913
 C         0.406132         1.120401         3.115532
 C        -0.403965         0.062191         2.302032
 C        -1.401563         0.888983         1.344860
 C        -0.553784         0.318127         0.097750
 C         0.674405         0.451682         1.167017
 O         1.920604        -0.049715         1.051995
 C        -0.804578         2.262695         1.409713
 H         2.226646         2.699079         2.328094
 H         1.331142         0.755738         3.570797
 H        -0.000574         1.717936         3.982991
 H        -0.695334        -0.955704         2.841736
 H        -2.526853         0.669064         1.555768
 H        -0.503975        -0.710164        -0.202849
 H        -0.526269         0.941272        -0.812308
 H         2.596496         0.708178         0.952240
 H        -0.974333         2.768657         0.454852
 H        -1.272549         3.021177         2.150623
