19
Iteration:  1338charge 0 multiplicity 1
 O         1.675352         2.752561         1.746240
 C         0.605919         1.802543         1.876371
 C         0.576089         0.860182         3.072957
 C        -0.385119         0.088056         2.206033
 C        -1.330859         0.931505         1.323482
 C        -0.501347         0.546828         0.021916
 C         0.580704         0.466740         1.054730
 O         1.852829        -0.106365         0.976398
 C        -0.794125         2.278955         1.660877
 H         1.983716         2.760614         0.828128
 H         1.551166         0.257932         3.095102
 H         0.262065         1.045775         4.124385
 H        -0.615456        -0.976492         2.304554
 H        -2.475513         0.701010         1.194505
 H        -0.801367        -0.335036        -0.627304
 H        -0.317399         1.288124        -0.864734
 H         1.658642        -1.042910         0.874828
 H        -0.892985         2.989466         0.845274
 H        -1.233691         2.678046         2.594085
