19
Iteration:  2454
 O         1.663959         2.931087         1.998025
 C         0.614029         2.001838         1.829672
 C         0.600955         1.079991         3.081373
 C        -0.250015         0.100836         2.278525
 C        -1.318598         0.905750         1.279651
 C        -0.531226         0.328792         0.068592
 C         0.549576         0.240604         1.040324
 O         1.744896        -0.412261         0.833386
 C        -0.771969         2.284238         1.433442
 H         1.681684         3.821937         1.605851
 H         1.570803         0.546376         3.213032
 H         0.378650         1.403978         4.091114
 H        -0.756091        -0.720117         2.674387
 H        -2.426932         0.716289         1.371974
 H        -0.802635        -0.740130        -0.289478
 H        -0.567892         0.943630        -0.943124
 H         2.474604         0.108109         0.683586
 H        -0.905399         2.886201         0.509387
 H        -1.319534         2.812433         2.165740
