19
Iteration:  4094
 O         1.858548         2.715816         1.576761
 C         0.647911         1.827754         1.843251
 C         0.334832         1.120788         3.205306
 C        -0.397318         0.052456         2.301173
 C        -1.377692         0.838806         1.320667
 C        -0.543539         0.276656         0.117800
 C         0.647034         0.398211         1.145633
 O         1.870113        -0.126497         0.826923
 C        -0.832459         2.330279         1.495662
 H         2.098926         3.025906         2.483643
 H         1.157559         0.593401         3.739075
 H        -0.269220         1.670780         3.897742
 H        -0.694953        -0.925937         2.469380
 H        -2.446289         0.621208         1.287791
 H        -0.645105        -0.751217        -0.141710
 H        -0.407580         1.095614        -0.603100
 H         2.432514         0.624269         1.022533
 H        -0.846221         2.857989         0.518769
 H        -1.195688         3.004779         2.217936
