19
Iteration:  1674charge 0 multiplicity 1
 O         1.715192         2.760448         1.852441
 C         0.629008         1.845805         1.999879
 C         0.414891         1.000760         3.278131
 C        -0.328156         0.022432         2.203617
 C        -1.329556         0.993741         1.307043
 C        -0.555934         0.422001         0.006028
 C         0.656181         0.394460         1.006949
 O         1.891604        -0.161658         0.651128
 C        -0.802335         2.340491         1.645996
 H         2.014069         2.550445         0.946406
 H         1.419967         0.582887         3.602883
 H        -0.086442         1.478042         4.143565
 H        -0.673220        -1.015934         2.282408
 H        -2.464412         0.639281         1.306954
 H        -0.747831        -0.648530        -0.211343
 H        -0.354685         1.064200        -0.820363
 H         1.785106        -1.054836         0.343764
 H        -0.828937         3.254607         0.986006
 H        -1.392025         2.734083         2.509986
