19
Iteration:  2318
 O         1.630400         2.837389         1.952996
 C         0.629298         1.829520         1.846334
 C         0.429914         1.107103         3.184800
 C        -0.303844         0.056782         2.321751
 C        -1.361574         0.842055         1.421786
 C        -0.527792         0.417006         0.058188
 C         0.661697         0.417119         1.035957
 O         1.802266        -0.341147         0.759223
 C        -0.654828         2.293386         1.364116
 H         1.637369         3.349513         1.119956
 H         1.416550         0.766068         3.479163
 H        -0.076244         1.489189         4.120351
 H        -0.638919        -0.982621         2.755057
 H        -2.439362         0.678028         1.508295
 H        -0.825880        -0.523155        -0.392315
 H        -0.376245         1.189091        -0.827247
 H         2.252018         0.169782         0.139154
 H        -0.731125         2.677334         0.392635
 H        -1.031953         3.074664         2.041766
