19
Iteration:  2287
 O         1.670338         2.941815         1.916841
 C         0.654047         1.986322         1.918892
 C         0.464667         1.090948         3.158347
 C        -0.262899         0.144295         2.166673
 C        -1.292648         0.931131         1.286367
 C        -0.463458         0.327490         0.026650
 C         0.692396         0.368237         0.972072
 O         1.764012        -0.493651         0.830322
 C        -0.815909         2.285796         1.617908
 H         1.396293         3.611518         1.256896
 H         1.385355         0.740807         3.672049
 H        -0.060143         1.444929         4.047091
 H        -0.835475        -0.879676         2.438918
 H        -2.309309         0.652831         1.268217
 H        -1.069068        -0.601648         0.089218
 H        -0.308417         0.602508        -1.167614
 H         2.103377        -0.501398        -0.170603
 H        -1.045755         2.990439         0.828841
 H        -1.328623         2.550120         2.544179
