19
Iteration:  4698
 O         1.618380         2.913088         1.673273
 C         0.688816         1.878016         1.842795
 C         0.428997         1.184150         3.230372
 C        -0.287894         0.142303         2.345191
 C        -1.305416         0.807050         1.262060
 C        -0.467308         0.276324         0.043661
 C         0.684692         0.464625         1.127821
 O         1.776625        -0.372696         0.965802
 C        -0.828373         2.244919         1.367125
 H         2.537891         2.591346         1.782960
 H         1.279179         0.714945         3.791612
 H        -0.097923         1.795061         4.010772
 H        -0.672928        -0.855922         2.763341
 H        -2.429724         0.768235         1.413824
 H        -0.739396        -0.715070        -0.067822
 H        -0.565341         0.908341        -0.822217
 H         2.192861        -0.131889         0.161608
 H        -0.848106         2.860840         0.437628
 H        -1.356809         2.841078         2.191836
