19
Iteration:   611charge 0 multiplicity 1
 O         1.666052         2.800701         1.922616
 C         0.625286         1.703354         1.905741
 C         0.552908         0.942458         3.145267
 C        -0.333686         0.020870         2.216481
 C        -1.352189         0.963231         1.332301
 C        -0.595666         0.549509         0.037932
 C         0.606135         0.363892         0.976274
 O         1.812787        -0.215167         0.760267
 C        -0.724933         2.299685         1.614614
 H         1.571802         3.256725         1.070315
 H         1.443749         0.318567         3.376382
 H         0.143302         1.463610         3.979092
 H        -0.664707        -0.958332         2.355463
 H        -2.443970         0.773635         1.429912
 H        -0.835618        -0.392052        -0.383538
 H        -0.567008         1.327763        -0.717729
 H         2.649925         0.368932         0.590318
 H        -0.697680         2.888184         0.672053
 H        -1.014304         2.853096         2.481691
