19
Iteration:  3182charge 0 multiplicity 1
 O         1.761642         2.754713         1.829011
 C         0.661953         1.847511         1.847098
 C         0.419501         0.984408         3.167670
 C        -0.351858         0.032323         2.274101
 C        -1.325555         0.950003         1.328490
 C        -0.583653         0.284380         0.104775
 C         0.603642         0.372103         1.016066
 O         1.841478        -0.141856         0.857683
 C        -0.744485         2.339141         1.465977
 H         1.704301         3.236175         0.994288
 H         1.415185         0.706678         3.611657
 H        -0.075594         1.449542         4.074043
 H        -0.783975        -0.918834         2.567903
 H        -2.438653         0.984488         1.365501
 H        -0.958630        -0.761215         0.016776
 H        -0.559485         0.832793        -0.874862
 H         2.455657         0.439729         0.405953
 H        -0.834871         2.987998         0.603493
 H        -1.139731         2.903823         2.319868
