19
Iteration:  3951
 O         1.787512         2.570812         1.609568
 C         0.635189         1.768575         1.841753
 C         0.382201         1.100444         3.116890
 C        -0.377502         0.076599         2.299369
 C        -1.305347         0.890502         1.352362
 C        -0.593434         0.325722         0.113914
 C         0.601781         0.413340         1.094841
 O         1.874466        -0.038217         0.891666
 C        -0.790466         2.328685         1.467631
 H         1.826449         3.275044         2.305599
 H         1.263140         0.572661         3.481805
 H        -0.068161         1.668354         3.977717
 H        -0.764711        -0.985809         2.532577
 H        -2.369842         0.661062         1.490713
 H        -0.699807        -0.781635        -0.050415
 H        -0.505780         1.035228        -0.823216
 H         2.552285         0.599644         1.276831
 H        -0.672893         3.052150         0.627922
 H        -1.195931         2.918446         2.224884
