19
Iteration:  3515
 O         1.643117         2.737429         1.702141
 C         0.652957         1.877284         1.892668
 C         0.535942         1.018699         3.131530
 C        -0.323330         0.036058         2.305410
 C        -1.300318         0.868370         1.357095
 C        -0.487958         0.579831         0.022349
 C         0.646360         0.434969         1.087984
 O         1.776558        -0.350965         0.941752
 C        -0.860632         2.332752         1.554724
 H         1.710072         2.982941         0.775025
 H         1.370248         0.471596         3.399428
 H         0.155345         1.650999         3.963253
 H        -0.605763        -1.019310         2.432667
 H        -2.286130         0.726333         1.131441
 H        -0.716185        -0.454519        -0.280357
 H        -0.270539         1.305615        -0.847428
 H         2.460611         0.094903         0.395750
 H        -1.033056         2.857776         0.612298
 H        -1.274825         2.809703         2.423329
