19
Iteration:  4500charge 0 multiplicity 1
 O         1.728547         2.828796         1.632121
 C         0.673230         1.924113         1.885521
 C         0.368205         1.149304         3.252586
 C        -0.348898         0.206955         2.315008
 C        -1.354678         0.793475         1.325997
 C        -0.493145         0.281586         0.129234
 C         0.682557         0.441206         1.125928
 O         1.796263        -0.364727         0.841904
 C        -0.782377         2.267105         1.367794
 H         1.673646         3.390590         2.421209
 H         1.268349         0.600071         3.610976
 H        -0.225575         1.747653         3.965515
 H        -0.410824        -0.881142         2.534445
 H        -2.416704         0.709601         1.396998
 H        -0.558795        -0.741588        -0.071790
 H        -0.662753         0.783817        -0.840814
 H         2.577924         0.038325         0.528244
 H        -0.737760         2.754778         0.362884
 H        -1.258959         2.795677         2.194623
