19
Iteration:  2961
 O         1.779987         2.748163         1.852228
 C         0.675053         1.883011         1.877368
 C         0.511240         1.060690         3.135906
 C        -0.325906         0.089392         2.271325
 C        -1.422789         0.948658         1.321721
 C        -0.535436         0.361659         0.012186
 C         0.655410         0.405136         1.038843
 O         1.840531        -0.291637         0.790241
 C        -0.929260         2.366590         1.556214
 H         1.801361         2.940078         0.903191
 H         1.513116         0.543106         3.221801
 H         0.205177         1.522003         4.108575
 H        -0.629671        -1.024987         2.355744
 H        -2.534155         0.777050         1.298307
 H        -0.773882        -0.656284        -0.007589
 H        -0.487822         0.674627        -1.026299
 H         2.494561         0.035202         1.551093
 H        -1.263961         3.027869         0.770706
 H        -1.206178         2.866439         2.499247
