19
Iteration:  4052charge 0 multiplicity 1
 O         1.668427         2.794661         1.760390
 C         0.597276         1.798050         1.778473
 C         0.443906         1.095507         3.093178
 C        -0.243638         0.059767         2.267667
 C        -1.364048         0.954475         1.352936
 C        -0.515298         0.311815         0.078421
 C         0.598098         0.311604         1.111088
 O         1.826963        -0.298837         0.907024
 C        -0.741742         2.383351         1.435771
 H         1.386578         3.383133         2.468048
 H         1.540468         0.862775         3.373606
 H        -0.064055         1.698156         3.816977
 H        -0.476958        -0.818395         2.712720
 H        -2.456969         0.919911         1.634322
 H        -0.813326        -0.743304        -0.035670
 H        -0.507628         1.040733        -0.794349
 H         2.626811         0.290051         0.575942
 H        -0.713785         2.904907         0.477126
 H        -1.159024         2.933328         2.194363
