19
Iteration:   183
 O         1.780526         2.649519         1.911867
 C         0.631684         1.826055         1.946908
 C         0.440525         0.942656         3.206517
 C        -0.303693        -0.001770         2.245858
 C        -1.395250         0.855765         1.310771
 C        -0.550493         0.474422         0.029647
 C         0.582029         0.459083         0.981430
 O         1.844010        -0.038705         0.717397
 C        -0.801323         2.350689         1.481481
 H         2.400491         2.294016         2.601829
 H         1.419875         0.392957         3.400131
 H        -0.065824         1.352812         4.126270
 H        -0.737370        -0.992194         2.558146
 H        -2.563208         0.745867         1.400698
 H        -0.602419        -0.653273        -0.297308
 H        -0.664743         1.138576        -0.854268
 H         2.337372         0.550312         0.037581
 H        -0.925556         3.004732         0.600825
 H        -1.247953         2.903600         2.440958
