19
Iteration:  4056charge 0 multiplicity 1
 O         1.671644         2.778047         1.759639
 C         0.584575         1.784885         1.808371
 C         0.474783         1.088472         3.129183
 C        -0.241272         0.103385         2.226559
 C        -1.328107         0.932284         1.347142
 C        -0.527655         0.284122         0.115278
 C         0.590034         0.363182         1.114494
 O         1.812172        -0.280734         0.889104
 C        -0.758081         2.392589         1.412611
 H         1.434475         3.361032         2.515487
 H         1.475129         0.824711         3.440945
 H        -0.056537         1.748090         3.874405
 H        -0.486764        -0.960996         2.655284
 H        -2.430814         0.902531         1.482655
 H        -0.792458        -0.817925        -0.202944
 H        -0.573292         0.830566        -0.817941
 H         2.551882         0.202859         0.647835
 H        -0.629660         2.834241         0.411963
 H        -1.181157         3.113230         2.281552
