19
Iteration:  4101
 O         1.777842         2.627045         1.576438
 C         0.646956         1.823622         1.784556
 C         0.337157         1.129174         3.218085
 C        -0.370178         0.044127         2.320899
 C        -1.361421         0.846658         1.321858
 C        -0.469608         0.350124         0.127863
 C         0.563483         0.348424         1.100824
 O         1.897216        -0.080377         0.852468
 C        -0.779218         2.360839         1.496361
 H         2.150791         2.945359         2.437406
 H         1.181657         0.794485         3.778039
 H        -0.346551         1.783247         3.843607
 H        -0.652175        -1.059587         2.585175
 H        -2.395302         0.571602         1.411245
 H        -0.878378        -0.680686        -0.086889
 H        -0.350949         1.056332        -0.730424
 H         2.508198         0.598037         1.023017
 H        -0.918877         2.904323         0.529963
 H        -1.317054         2.889335         2.404150
