19
Iteration:  3367charge 0 multiplicity 1
 O         1.710785         2.753868         1.681739
 C         0.678316         1.808978         1.837344
 C         0.558488         0.963110         3.188896
 C        -0.394532         0.046198         2.269227
 C        -1.390961         0.955874         1.302589
 C        -0.464740         0.454098         0.027070
 C         0.567291         0.433029         1.139839
 O         1.795474        -0.256915         0.924153
 C        -0.792902         2.299114         1.545455
 H         1.265557         3.419659         1.133962
 H         1.504850         0.395238         3.290670
 H         0.387406         1.364372         4.121329
 H        -0.774971        -0.899573         2.660470
 H        -2.521307         0.725332         1.212752
 H        -0.800891        -0.529781        -0.333245
 H        -0.346651         1.150538        -0.805429
 H         2.626985         0.322259         1.152492
 H        -0.847072         2.794361         0.537420
 H        -1.142320         3.164817         2.130766
