19
Iteration:  1721
 O         1.760448         2.654103         1.906159
 C         0.639275         1.831836         1.922492
 C         0.466828         0.982546         3.202433
 C        -0.354711         0.052196         2.247479
 C        -1.367458         0.855204         1.342674
 C        -0.615579         0.375350         0.082755
 C         0.582032         0.401368         1.067348
 O         1.840715         0.095660         0.635686
 C        -0.705401         2.307887         1.488997
 H         2.464908         2.160434         2.378855
 H         1.358654         0.545509         3.556992
 H        -0.040045         1.558772         4.006058
 H        -0.532042        -0.976120         2.566840
 H        -2.419583         0.766681         1.424412
 H        -0.939274        -0.596995        -0.119013
 H        -0.659430         1.045892        -0.720853
 H         1.882847        -0.640404         0.052743
 H        -0.635808         2.770733         0.440388
 H        -1.253137         3.095007         2.010018
