19
Iteration:  3235
 O         1.827331         2.664795         1.602829
 C         0.672491         1.868373         1.855538
 C         0.313573         1.058963         3.171699
 C        -0.349331         0.063256         2.201039
 C        -1.350215         0.752514         1.329593
 C        -0.587067         0.412466         0.056598
 C         0.610488         0.427744         1.062106
 O         1.830870        -0.189798         0.897800
 C        -0.734058         2.391240         1.674080
 H         1.450884         3.450393         1.183559
 H         1.197984         0.667990         3.717815
 H        -0.266350         1.526953         3.919884
 H        -0.385525        -1.018607         2.425566
 H        -2.409347         0.707910         1.548957
 H        -0.621427        -0.640816        -0.310029
 H        -0.436000         1.237228        -0.774959
 H         2.588938         0.276401         1.413194
 H        -0.832508         2.874216         0.674897
 H        -1.141497         3.005401         2.493798
