19
Iteration:  1376
 O         1.791017         2.602590         1.871245
 C         0.672359         1.875358         1.887485
 C         0.288617         1.055972         3.231115
 C        -0.269779         0.089159         2.229663
 C        -1.305703         0.887669         1.348384
 C        -0.564555         0.425227         0.046638
 C         0.629489         0.420052         1.001942
 O         1.884018        -0.122861         0.618133
 C        -0.762490         2.299541         1.601040
 H         1.596726         3.521007         1.565158
 H         1.098381         0.754266         3.847872
 H        -0.503359         1.446446         3.890386
 H        -0.541259        -0.955062         2.519028
 H        -2.317286         0.853855         1.524159
 H        -0.962577        -0.496129        -0.213730
 H        -0.645808         1.160376        -0.648218
 H         1.960895        -1.013529         0.914048
 H        -0.940806         2.941492         0.702766
 H        -1.202244         2.864749         2.422056
