19
Iteration:  2016
 O         1.793897         2.618402         1.968560
 C         0.638503         1.858890         1.906801
 C         0.369338         1.045354         3.115747
 C        -0.329665        -0.008865         2.258093
 C        -1.395145         0.843115         1.357439
 C        -0.611080         0.404944         0.152423
 C         0.620936         0.422277         1.074389
 O         1.836527        -0.001903         0.599982
 C        -0.685977         2.246641         1.409814
 H         1.745349         3.360386         1.351252
 H         1.294833         0.552248         3.570911
 H        -0.068724         1.551337         4.007223
 H        -0.745914        -0.901347         2.814864
 H        -2.385478         0.894375         1.615540
 H        -0.810170        -0.672770        -0.260947
 H        -0.606456         1.236897        -0.604563
 H         2.544411        -0.074285         1.358882
 H        -0.606053         2.738364         0.418440
 H        -1.145459         3.088522         1.848032
