19
Iteration:    49charge 0 multiplicity 1
 O         1.747415         2.593096         1.814094
 C         0.564678         1.842218         1.979280
 C         0.311630         1.000125         3.206311
 C        -0.303763         0.048429         2.172138
 C        -1.387786         0.908192         1.323464
 C        -0.551009         0.344331         0.148103
 C         0.651138         0.485938         1.005484
 O         1.908529        -0.073025         0.537607
 C        -0.744987         2.411086         1.636925
 H         2.267992         2.551379         2.652232
 H         1.287134         0.538360         3.523881
 H        -0.364426         1.328463         4.049353
 H        -0.539422        -1.052517         2.288123
 H        -2.429268         0.774977         1.538134
 H        -0.716515        -0.753256        -0.014877
 H        -0.636790         0.769216        -0.892410
 H         2.662134         0.550344         0.846796
 H        -0.707628         3.020389         0.681171
 H        -1.213487         2.860606         2.541779
