19
Iteration:  3416charge 0 multiplicity 1
 O         1.862818         2.616520         1.788975
 C         0.657393         1.797836         1.845861
 C         0.393644         1.106277         3.200373
 C        -0.429994         0.107890         2.291776
 C        -1.389215         0.797770         1.329550
 C        -0.555958         0.396487         0.136757
 C         0.588715         0.413704         1.046204
 O         1.853898        -0.117722         0.758428
 C        -0.784567         2.321116         1.513856
 H         2.015947         2.875687         0.855843
 H         1.214796         0.712972         3.799762
 H        -0.159465         1.835874         3.916653
 H        -0.416458        -0.952860         2.584031
 H        -2.431478         0.696414         1.485557
 H        -0.701421        -0.655024        -0.201273
 H        -0.436565         1.062944        -0.798903
 H         2.413372         0.662412         0.772994
 H        -0.906577         2.970651         0.638499
 H        -1.233506         2.899109         2.333513
