19
Iteration:  3976charge 0 multiplicity 1
 O         1.751498         2.598859         1.515462
 C         0.636646         1.803565         1.857158
 C         0.426935         1.050411         3.190607
 C        -0.394400         0.091816         2.298054
 C        -1.427204         0.899750         1.357675
 C        -0.621343         0.474584        -0.001840
 C         0.593734         0.370137         1.114644
 O         2.041281        -0.129681         0.997085
 C        -0.822026         2.255724         1.511981
 H         1.784074         3.516922         1.822241
 H         1.345306         0.453970         3.585423
 H        -0.113148         1.500609         4.006215
 H        -0.761835        -0.782993         2.646959
 H        -2.537836         0.779910         1.373060
 H        -0.730432        -0.550925        -0.205890
 H        -0.304395         1.167020        -0.773921
 H         2.551074         0.620840         0.837499
 H        -1.005070         2.954144         0.663467
 H        -1.031707         2.860357         2.415052
