19
Iteration:  4256charge 0 multiplicity 1
 O         1.861564         2.634646         1.603263
 C         0.551520         1.791390         1.764176
 C         0.407446         1.079964         3.116799
 C        -0.397452         0.064145         2.319661
 C        -1.346759         0.927297         1.352755
 C        -0.535122         0.299255         0.105320
 C         0.573004         0.294613         1.110683
 O         1.907982        -0.051569         0.934047
 C        -0.791642         2.325060         1.475502
 H         1.801768         3.304089         2.299381
 H         1.356639         0.773335         3.581517
 H        -0.184655         1.577140         3.949205
 H        -0.814660        -0.789401         2.717290
 H        -2.410590         0.882816         1.326278
 H        -0.919238        -0.706193         0.008296
 H        -0.317167         0.991411        -0.777399
 H         2.395059         0.716850         1.119350
 H        -0.873352         2.938436         0.478044
 H        -1.287067         2.980779         2.268643
