19
Iteration:  1573charge 0 multiplicity 1
 O         1.772032         2.622902         1.850482
 C         0.609471         1.795754         1.960584
 C         0.437945         1.037714         3.281159
 C        -0.400397         0.040630         2.354205
 C        -1.306076         0.922092         1.248304
 C        -0.536445         0.419357         0.123223
 C         0.641343         0.361761         1.067538
 O         1.880761         0.012756         0.576727
 C        -0.742238         2.333441         1.458463
 H         1.695623         3.181026         2.644165
 H         1.321701         0.414706         3.494378
 H         0.006499         1.527698         4.185141
 H        -0.851911        -0.948946         2.495902
 H        -2.418518         0.693662         1.277106
 H        -0.919133        -0.521315        -0.301287
 H        -0.668777         1.070605        -0.782695
 H         1.615426        -0.939055         0.180198
 H        -0.666745         2.900707         0.460379
 H        -1.405109         2.918079         2.102921
