19
Iteration:  4523charge 0 multiplicity 1
 O         1.711873         2.846900         1.683442
 C         0.660430         1.901966         1.776211
 C         0.377847         1.208378         3.119538
 C        -0.270351         0.048132         2.313874
 C        -1.314805         0.858090         1.350339
 C        -0.552894         0.279391         0.118018
 C         0.607490         0.276683         1.107747
 O         1.826774        -0.306859         0.889781
 C        -0.750614         2.322159         1.436430
 H         1.574017         3.231443         2.582586
 H         1.278417         0.981580         3.663939
 H        -0.319726         1.845260         3.667329
 H        -0.650472        -0.916113         2.711620
 H        -2.317510         0.708941         1.370106
 H        -0.981388        -0.658577        -0.097754
 H        -0.534353         0.796362        -0.847384
 H         2.672179         0.253886         0.902243
 H        -0.706772         2.807202         0.488494
 H        -1.130972         2.955003         2.230346
