19
Iteration:  2676charge 0 multiplicity 1
 O         1.661043         2.787798         1.612941
 C         0.632215         1.845285         1.836778
 C         0.455475         1.034706         3.222431
 C        -0.414575         0.073088         2.284742
 C        -1.369644         0.902594         1.313116
 C        -0.455094         0.441880         0.083232
 C         0.597583         0.352272         1.103247
 O         1.905786        -0.121888         0.895523
 C        -0.791364         2.263130         1.561132
 H         2.452236         2.548818         2.102737
 H         1.370512         0.532022         3.475327
 H         0.027088         1.457618         4.174523
 H        -0.600254        -1.033414         2.546395
 H        -2.487133         0.672717         1.159191
 H        -0.514380        -0.530853        -0.482569
 H        -0.396038         1.248143        -0.746623
 H         1.969624        -0.907113         0.253130
 H        -0.967277         2.883231         0.698373
 H        -1.196811         2.919513         2.344060
