19
Iteration:   665
 O         1.808582         2.615874         1.940735
 C         0.633887         1.789650         1.924795
 C         0.369276         1.040495         3.209705
 C        -0.340106         0.098207         2.333206
 C        -1.323140         0.921236         1.328534
 C        -0.582603         0.324378         0.111780
 C         0.610064         0.430500         1.025581
 O         1.839642        -0.069084         0.447466
 C        -0.743590         2.342222         1.550712
 H         1.471872         3.503333         1.791764
 H         1.278910         0.647063         3.727208
 H        -0.262989         1.513670         3.946264
 H        -0.507338        -0.923266         2.438999
 H        -2.384583         0.952002         1.330826
 H        -0.669221        -0.762306        -0.078474
 H        -0.591697         0.966511        -0.829959
 H         2.611007        -0.378938         1.072088
 H        -0.991778         2.963568         0.680384
 H        -1.221515         2.797910         2.405475
