19
Iteration:  1396charge 0 multiplicity 1
 O         1.793268         2.713281         1.917179
 C         0.705064         1.765109         1.943573
 C         0.266458         1.004759         3.207327
 C        -0.359041        -0.000319         2.260021
 C        -1.335050         0.933251         1.378667
 C        -0.608443         0.338553         0.159080
 C         0.645872         0.405808         1.072132
 O         1.880200        -0.037694         0.493556
 C        -0.653005         2.397601         1.462317
 H         1.387029         3.597882         1.875807
 H         1.173939         0.630048         3.728532
 H        -0.488993         1.488591         3.883545
 H        -0.743401        -1.088282         2.298769
 H        -2.370691         0.741004         1.445332
 H        -0.794587        -0.720697         0.211153
 H        -0.613371         0.767610        -0.811412
 H         1.836937        -1.019988         0.814978
 H        -0.463570         2.891133         0.524068
 H        -1.044959         3.162357         2.170368
