19
Iteration:  1802
 O         1.608568         2.784708         1.728951
 C         0.671089         1.845531         1.925491
 C         0.508666         0.924095         3.134633
 C        -0.306055         0.019178         2.180222
 C        -1.396063         0.907207         1.328345
 C        -0.441173         0.617484         0.079569
 C         0.642475         0.470458         1.027784
 O         1.858388        -0.255038         0.857520
 C        -0.849816         2.318962         1.668549
 H         2.194000         2.708270         0.966419
 H         1.559112         0.456124         3.210851
 H         0.219923         1.304627         4.104471
 H        -0.530468        -0.957804         2.692317
 H        -2.533462         0.685632         1.208378
 H        -0.685803        -0.398617        -0.345984
 H        -0.243533         1.326736        -0.794320
 H         1.555776        -1.160734         0.601967
 H        -0.979712         2.981789         0.786556
 H        -1.392627         2.743666         2.571627
