19
Iteration:   415
 O         1.533396         2.840488         1.677954
 C         0.638367         1.808252         1.902872
 C         0.491981         0.789008         3.148316
 C        -0.372546        -0.014011         2.138545
 C        -1.364390         1.000237         1.318825
 C        -0.469631         0.598043        -0.007119
 C         0.644129         0.454737         1.022601
 O         1.947662        -0.196782         0.881040
 C        -0.783780         2.350979         1.804292
 H         2.342464         2.386305         1.364838
 H         1.456803         0.311439         3.260411
 H         0.002927         1.090067         4.076019
 H        -0.613713        -0.980862         2.365134
 H        -2.394276         0.690844         1.221109
 H        -0.768431        -0.346835        -0.497532
 H        -0.478314         1.425528        -0.801371
 H         1.841715        -1.212754         0.717386
 H        -0.804114         3.212695         1.117551
 H        -1.109545         2.681475         2.808656
