19
Iteration:  1667
 O         1.703519         2.769707         1.819346
 C         0.627435         1.817412         1.934168
 C         0.454864         0.907421         3.236431
 C        -0.350165         0.042956         2.235535
 C        -1.348216         0.979471         1.249848
 C        -0.467349         0.453045         0.005722
 C         0.645114         0.436013         1.069627
 O         1.853604        -0.153044         0.701342
 C        -0.820850         2.321206         1.674302
 H         2.019258         2.769519         0.887175
 H         1.440394         0.581796         3.394856
 H         0.015519         1.390438         4.127655
 H        -0.722417        -0.936426         2.594811
 H        -2.404751         0.854228         1.412592
 H        -0.801704        -0.537983        -0.275283
 H        -0.385263         1.109309        -0.893629
 H         1.728895        -1.031883         0.473068
 H        -0.817710         3.219351         0.955023
 H        -1.288192         2.622950         2.642833
