19
Iteration:  4986charge 0 multiplicity 1
 O         1.648551         2.894159         1.670751
 C         0.671641         1.865531         1.806640
 C         0.407620         1.133000         3.281645
 C        -0.317115         0.101068         2.326743
 C        -1.339654         0.868787         1.275795
 C        -0.561423         0.264390         0.112010
 C         0.675794         0.395772         1.083819
 O         1.852308        -0.288023         0.974075
 C        -0.802394         2.265964         1.374366
 H         2.471927         2.394592         1.846246
 H         1.340465         0.592780         3.422827
 H        -0.169183         1.737063         4.029316
 H        -0.458730        -0.969663         2.536240
 H        -2.402713         0.756032         1.432500
 H        -1.024712        -0.701208        -0.252815
 H        -0.446445         0.922581        -0.829305
 H         2.457706         0.351190         0.596684
 H        -0.706862         2.753927         0.314066
 H        -1.308497         3.121984         1.976105
