19
Iteration:  3283
 O         1.741182         2.713480         1.857708
 C         0.652245         1.855630         1.857742
 C         0.503797         1.062584         3.148955
 C        -0.420817         0.092891         2.352776
 C        -1.384367         0.941890         1.418950
 C        -0.442516         0.324277        -0.014415
 C         0.509893         0.386321         1.067881
 O         1.851695        -0.200036         0.785242
 C        -0.765777         2.268679         1.441984
 H         1.808054         3.189304         0.992185
 H         1.442967         0.505431         3.470791
 H         0.001309         1.704609         4.054092
 H        -0.789215        -0.790130         2.860152
 H        -2.579481         0.812835         1.410460
 H        -0.728942        -0.763442        -0.317721
 H        -0.417003         1.196052        -0.746858
 H         2.333468         0.509617         0.499415
 H        -0.564681         2.753695         0.498798
 H        -1.236892         2.862675         2.227153
