19
Iteration:  4562charge 0 multiplicity 1
 O         1.781391         2.691954         1.518362
 C         0.613782         1.867184         1.855276
 C         0.442593         1.097543         3.177138
 C        -0.427071         0.103617         2.342151
 C        -1.358135         0.819652         1.262184
 C        -0.506444         0.293595         0.106231
 C         0.621046         0.436634         1.164905
 O         1.812458        -0.116975         0.980391
 C        -0.769601         2.313211         1.437026
 H         2.447547         2.778210         2.206751
 H         1.353737         0.526201         3.528105
 H        -0.113414         1.585022         4.001608
 H        -0.489804        -0.946651         2.609509
 H        -2.510456         0.658068         1.308750
 H        -0.625149        -0.851666         0.185546
 H        -0.493267         0.862198        -0.838363
 H         2.322357         0.689772         0.897527
 H        -0.813999         2.762466         0.387569
 H        -1.390993         2.950208         2.103866
