19
Iteration:  3732charge 0 multiplicity 1
 O         1.677779         2.793505         1.659106
 C         0.592893         1.888750         1.819072
 C         0.486724         1.074154         3.267626
 C        -0.302689         0.057814         2.272998
 C        -1.351885         0.849716         1.329555
 C        -0.509830         0.386761         0.060675
 C         0.598024         0.330623         1.072538
 O         1.784816        -0.212247         0.902481
 C        -0.753588         2.309384         1.479350
 H         2.191991         2.593717         2.484905
 H         1.467502         0.708690         3.512113
 H        -0.041199         1.573297         4.134361
 H        -0.564533        -1.040126         2.590172
 H        -2.406155         0.677335         1.385614
 H        -0.802283        -0.449916        -0.531188
 H        -0.363231         1.131986        -0.638050
 H         2.440761         0.209724         0.395656
 H        -0.706731         2.819248         0.459254
 H        -1.155815         3.098135         2.114196
