19
Iteration:  4952charge 0 multiplicity 1
 C         3.947710         1.838504         2.516933
 C         3.037008         0.933342         1.722123
 O         3.432036        -0.468714         1.600618
 C         2.573956        -0.485928         0.437422
 C         2.734689         1.083179         0.271257
 C         1.577603         1.182001         1.384984
 C         1.092026        -0.258653         0.855490
 C         0.127813        -0.000470        -0.359334
 O         0.541377        -1.326339         1.571908
 H         3.445150         2.027742         3.415219
 H         4.891627         1.419915         2.774083
 H         4.088689         2.766467         1.929204
 H         2.865937        -1.326746        -0.171240
 H         3.043510         1.682565        -0.522798
 H         0.784760         1.810415         1.814734
 H         0.589817         0.870012        -0.873525
 H         0.065614        -0.678279        -1.230055
 H        -0.983514        -0.021754        -0.111470
 H         0.954776        -1.602668         2.363313
