19
Iteration:  1860charge 0 multiplicity 1
 C         4.080216         1.802442         2.555631
 C         3.120428         0.908224         1.754592
 O         3.442500        -0.461492         1.452157
 C         2.545189        -0.348582         0.279807
 C         2.618630         1.225324         0.360744
 C         1.556467         1.087735         1.460622
 C         1.071955        -0.290329         0.845202
 C         0.060994         0.033349        -0.259014
 O         0.539594        -1.469709         1.561856
 H         4.147152         1.473616         3.580614
 H         5.095590         1.708007         2.185362
 H         3.766343         2.880563         2.369947
 H         2.903698        -0.886895        -0.575174
 H         2.798806         1.964734        -0.459850
 H         0.755428         1.661207         2.046534
 H         0.200266         1.017565        -0.632999
 H         0.173765        -0.665377        -0.985877
 H        -1.024897         0.058756         0.036452
 H         1.232406        -1.607032         2.328217
