19
Iteration:  3884charge 0 multiplicity 1
 C         3.964911         1.792612         2.610624
 C         3.088622         0.978112         1.698663
 O         3.401287        -0.433517         1.397768
 C         2.551572        -0.344996         0.286985
 C         2.553180         1.237516         0.406885
 C         1.497335         1.055005         1.513691
 C         1.096828        -0.323435         0.833424
 C         0.160088        -0.055817        -0.403788
 O         0.689773        -1.422201         1.699340
 H         4.036531         1.208190         3.448629
 H         4.898674         1.937446         2.086487
 H         3.511926         2.761822         2.625539
 H         2.664146        -0.954486        -0.623575
 H         2.807515         2.012259        -0.401613
 H         0.767701         1.819123         1.872221
 H         0.706180         0.526935        -1.113310
 H        -0.108847        -0.991526        -0.877492
 H        -0.828467         0.400333        -0.029804
 H         1.547798        -1.369765         2.196079
