19
Iteration:   330
 C         3.928654         1.698332         2.675299
 C         3.113741         0.906946         1.712023
 O         3.358694        -0.525867         1.335710
 C         2.488425        -0.328373         0.169380
 C         2.670818         1.218622         0.297071
 C         1.530289         1.064371         1.451173
 C         1.141881        -0.210622         0.824019
 C         0.010124        -0.127927        -0.221048
 O         0.770836        -1.184432         1.713157
 H         4.191578         1.341539         3.586826
 H         4.948597         1.618333         2.331730
 H         3.480119         2.647886         2.724091
 H         2.698156        -1.119122        -0.601610
 H         2.793813         1.974723        -0.463363
 H         0.978210         1.790223         2.065002
 H        -0.907895         0.436290         0.176890
 H         0.469883         0.323213        -1.168806
 H        -0.459217        -1.060370        -0.477040
 H         1.540127        -1.508774         2.234755
