19
Iteration:  3435
 C         4.001340         1.787014         2.565546
 C         3.038410         0.938977         1.796165
 O         3.366739        -0.445247         1.429648
 C         2.598600        -0.320520         0.232467
 C         2.599326         1.300004         0.364856
 C         1.529808         1.073148         1.509868
 C         1.156819        -0.329053         0.857803
 C         0.122988        -0.121074        -0.314278
 O         0.597821        -1.379335         1.570982
 H         4.653278         1.251094         3.261210
 H         4.844245         2.093645         1.975845
 H         3.477096         2.665221         2.853587
 H         2.927487        -0.960754        -0.573890
 H         2.639086         2.126753        -0.245708
 H         0.949209         1.803118         2.145700
 H         0.578077         0.518779        -1.248604
 H         0.002760        -1.199542        -0.684014
 H        -0.765862         0.262240         0.035044
 H         1.100035        -1.579323         2.409661
