19
Iteration:  1324charge 0 multiplicity 1
 C         3.844914         1.480386         2.776264
 C         3.067733         0.954830         1.619788
 O         3.442357        -0.454767         1.354817
 C         2.532950        -0.364685         0.207721
 C         2.710069         1.238597         0.208903
 C         1.560150         1.180481         1.253718
 C         1.107977        -0.179129         0.813492
 C        -0.048619        -0.113005        -0.183878
 O         0.764666        -1.185767         1.843116
 H         3.685115         0.758725         3.582556
 H         4.974756         1.406925         2.575124
 H         3.772115         2.457709         3.168798
 H         2.921340        -1.059029        -0.602669
 H         2.814003         1.906440        -0.651862
 H         1.102456         2.123596         1.699549
 H        -0.903086         0.459905         0.070271
 H         0.333104         0.032688        -1.150258
 H        -0.522659        -1.042716        -0.182859
 H         1.622118        -1.423221         2.058776
