19
Iteration:  2023
 C         3.936791         1.642543         2.597648
 C         3.085395         0.922966         1.672331
 O         3.376893        -0.461208         1.498115
 C         2.544849        -0.330132         0.194939
 C         2.560369         1.245882         0.352599
 C         1.535781         1.110241         1.458134
 C         1.084956        -0.243863         0.851509
 C         0.028475        -0.075202        -0.260954
 O         0.809229        -1.333557         1.591938
 H         3.946144         1.246966         3.636412
 H         4.961612         1.359069         2.325806
 H         3.938677         2.783155         2.500107
 H         2.763801        -0.976790        -0.635564
 H         2.806912         2.081238        -0.309792
 H         1.039250         1.847972         1.969974
 H         0.209888         0.916379        -0.763697
 H         0.024803        -0.936559        -0.933939
 H        -1.079940         0.152038         0.128109
 H         1.502701        -1.297526         2.334331
