19
Iteration:  2762
 C         4.080206         1.876707         2.573491
 C         3.154903         1.020954         1.721089
 O         3.530744        -0.447724         1.460351
 C         2.539511        -0.368764         0.319881
 C         2.613856         1.179478         0.355636
 C         1.512183         0.987768         1.464740
 C         1.024981        -0.350443         0.816244
 C         0.033397         0.029137        -0.206646
 O         0.529049        -1.439209         1.528692
 H         3.878990         1.653357         3.658373
 H         5.092986         1.515818         2.506400
 H         3.830575         2.938155         2.521052
 H         2.824168        -0.987285        -0.584597
 H         2.935712         1.838673        -0.468716
 H         0.790277         1.808899         1.717287
 H         0.372637         0.722729        -0.854653
 H        -0.202642        -0.779465        -0.909293
 H        -0.960373         0.530180         0.151515
 H         1.383051        -1.822353         1.993979
