19
Iteration:  3117
 C         3.792417         1.532370         2.848316
 C         3.058616         0.880615         1.686163
 O         3.437569        -0.472150         1.273490
 C         2.516802        -0.307458         0.126579
 C         2.633795         1.216206         0.251749
 C         1.578474         1.164318         1.361525
 C         1.118229        -0.180529         0.786314
 C        -0.032432        -0.231628        -0.287771
 O         0.854608        -1.096298         1.851355
 H         3.508820         0.961930         3.768576
 H         4.876223         1.452022         2.665338
 H         3.457081         2.588758         3.114290
 H         3.036415        -0.917061        -0.628785
 H         2.944937         1.873677        -0.493862
 H         1.065824         2.054009         1.877581
 H         0.102302         0.640561        -1.189400
 H        -0.144780        -1.309985        -0.634674
 H        -0.903998         0.040087         0.181129
 H         1.806863        -1.434629         2.151447
