19
Iteration:  4462
 C         3.746888         1.673785         2.858441
 C         3.094974         0.991893         1.590394
 O         3.386867        -0.426408         1.414860
 C         2.612713        -0.465425         0.258564
 C         2.551946         1.183771         0.141090
 C         1.583382         1.079031         1.339408
 C         1.179343        -0.284541         0.803557
 C         0.048952        -0.040665        -0.302757
 O         0.832631        -1.226440         1.759928
 H         4.353616         1.075037         3.391171
 H         4.468391         2.446110         2.545844
 H         3.028920         2.168431         3.529012
 H         2.881342        -1.425632        -0.219516
 H         2.782949         2.044479        -0.560942
 H         0.956508         1.837871         1.796249
 H         0.222611         0.810762        -0.870043
 H        -0.123035        -0.899125        -1.029246
 H        -1.047653        -0.056301         0.151955
 H         1.564914        -1.474655         2.287434
