19
Iteration:  2159charge 0 multiplicity 1
 C         3.782565         1.497416         2.900314
 C         3.094468         0.938038         1.682565
 O         3.273641        -0.492066         1.386143
 C         2.533390        -0.266093         0.089185
 C         2.774043         1.262644         0.183219
 C         1.607158         1.317720         1.265132
 C         1.104843        -0.167789         0.712257
 C        -0.083018        -0.270158        -0.150108
 O         0.886336        -1.247187         1.810721
 H         3.380743         0.988955         3.740740
 H         4.841609         1.171096         2.882836
 H         3.785108         2.543217         2.951829
 H         2.875764        -0.898882        -0.758775
 H         3.174925         1.840320        -0.629340
 H         1.172115         2.351571         1.498685
 H        -0.189534         0.481566        -0.968047
 H         0.086501        -1.250738        -0.617664
 H        -0.911357        -0.238981         0.472436
 H         1.874068        -1.162156         2.171891
