19
Iteration:   231charge 0 multiplicity 1
 C         3.844234         1.746807         2.644191
 C         3.143242         0.842325         1.708360
 O         3.405387        -0.594998         1.272160
 C         2.529353        -0.358438         0.114582
 C         2.645071         1.196411         0.308828
 C         1.605462         1.114941         1.412775
 C         1.108796        -0.185504         0.915482
 C         0.087334        -0.080520        -0.218605
 O         0.663112        -1.220263         1.808595
 H         3.689175         1.478529         3.688383
 H         5.067291         1.683916         2.520543
 H         3.629757         2.789066         2.429479
 H         2.610616        -0.927308        -0.813857
 H         2.909813         1.998684        -0.364732
 H         0.979363         2.047851         1.795684
 H        -0.457266        -1.090713        -0.413040
 H        -0.779360         0.678242        -0.024226
 H         0.670834         0.127349        -1.118667
 H         1.433871        -1.327084         2.468509
