19
Iteration:  3671
 C         3.846062         1.792597         2.627269
 C         3.043600         0.926238         1.689408
 O         3.367394        -0.485929         1.468920
 C         2.612120        -0.308223         0.199236
 C         2.663805         1.194519         0.244422
 C         1.585214         1.112343         1.389573
 C         1.126763        -0.317142         0.820374
 C         0.119539         0.013934        -0.143917
 O         0.682159        -1.434382         1.647624
 H         3.971877         1.387337         3.640850
 H         4.876272         1.950103         2.234919
 H         3.400165         2.758246         2.637083
 H         2.896302        -1.063334        -0.527747
 H         2.979350         2.004489        -0.409332
 H         0.823072         1.811992         1.806571
 H         0.226395         0.934233        -0.825452
 H         0.096004        -0.737008        -0.981126
 H        -0.914523        -0.109869         0.358478
 H         1.299411        -1.457467         2.371736
