19
Iteration:   926charge 0 multiplicity 1
 C         4.000855         1.687592         2.554093
 C         3.157417         0.946907         1.672588
 O         3.408273        -0.466573         1.490952
 C         2.570734        -0.340487         0.315827
 C         2.614846         1.196879         0.299626
 C         1.586994         1.055483         1.405436
 C         1.035919        -0.212456         0.861238
 C         0.002472         0.012794        -0.286496
 O         0.661259        -1.402794         1.646319
 H         3.726748         1.395061         3.573733
 H         5.016686         1.702195         2.251723
 H         3.751293         2.694624         2.449396
 H         2.782642        -1.136761        -0.522685
 H         2.998758         1.927835        -0.355248
 H         0.959217         1.950044         1.789640
 H        -0.776617         0.673751         0.126716
 H         0.506793         0.445635        -1.192328
 H        -0.489257        -0.852861        -0.647425
 H         1.192983        -1.324476         2.551755
