19
Iteration:   423
 C         3.816184         1.553934         2.744670
 C         3.045054         0.891520         1.663319
 O         3.320740        -0.520600         1.413455
 C         2.542185        -0.333162         0.137384
 C         2.742151         1.231764         0.224037
 C         1.562337         1.180353         1.298050
 C         1.108875        -0.183836         0.747641
 C        -0.114678        -0.142492        -0.154661
 O         0.936108        -1.154636         1.788660
 H         3.921940         1.123563         3.700889
 H         4.838588         1.221378         2.489583
 H         3.696300         2.681121         2.767391
 H         2.746790        -1.120137        -0.549185
 H         3.221538         2.044857        -0.273289
 H         0.892255         2.118288         1.675625
 H        -1.047330         0.109557         0.352914
 H         0.086326         0.473041        -0.993962
 H        -0.308166        -1.189883        -0.491577
 H         1.830780        -1.297147         2.246491
