19
Iteration:   438
 C         3.980105         1.634281         2.709499
 C         3.033688         0.860988         1.743535
 O         3.308660        -0.545634         1.425990
 C         2.513064        -0.353095         0.124004
 C         2.683157         1.208319         0.284113
 C         1.601878         1.137281         1.310196
 C         1.113121        -0.194128         0.766848
 C        -0.037217        -0.159628        -0.187024
 O         0.833335        -1.127815         1.746614
 H         3.666588         1.335069         3.865100
 H         5.000719         1.867709         2.383972
 H         3.547198         2.626076         2.698861
 H         2.817597        -1.008228        -0.734905
 H         2.866888         1.956753        -0.500588
 H         0.985196         1.842192         1.715802
 H        -0.948101        -0.144084         0.503821
 H        -0.095169         0.794134        -0.807526
 H        -0.078803        -1.047532        -0.794063
 H         1.727375        -1.322450         1.981687
