19
Iteration:  1249charge 0 multiplicity 1
 C         3.850053         1.542427         2.757918
 C         3.103375         0.930740         1.670399
 O         3.311959        -0.543097         1.416966
 C         2.557729        -0.272402         0.132893
 C         2.714891         1.165846         0.239240
 C         1.629280         1.183757         1.259620
 C         1.116386        -0.156770         0.809663
 C        -0.073945        -0.191677        -0.204338
 O         0.842464        -1.103531         1.813442
 H         3.404859         1.271587         3.737770
 H         4.946400         1.143706         2.625033
 H         3.919522         2.606448         2.780826
 H         2.759368        -0.978558        -0.747566
 H         2.817077         2.008437        -0.485492
 H         1.007129         1.900088         1.921047
 H        -0.936258        -0.360749         0.490146
 H        -0.368915         0.729586        -0.918899
 H        -0.096935        -1.133733        -0.980684
 H         1.721122        -1.522075         1.994550
