19
Iteration:  4651charge 0 multiplicity 1
 C         3.806072         1.547640         2.888246
 C         3.123712         0.952425         1.694373
 O         3.319339        -0.434581         1.499375
 C         2.582506        -0.364585         0.214146
 C         2.771202         1.218734         0.246139
 C         1.510328         1.252608         1.067422
 C         1.043869        -0.176161         0.808169
 C        -0.035056        -0.286034        -0.291254
 O         0.859423        -1.177956         1.794850
 H         4.019741         2.585446         2.605629
 H         3.185705         1.486949         3.696069
 H         4.700715         1.020301         2.957662
 H         3.057433        -0.958618        -0.586564
 H         3.316916         1.825361        -0.554749
 H         0.813371         2.005365         1.325614
 H         0.227147         0.579025        -1.083131
 H        -0.203326        -1.280961        -0.702559
 H        -0.979177        -0.032882         0.156231
 H         1.782132        -1.423626         2.044178
