19
Iteration:  2910charge 0 multiplicity 1
 C         3.808773         1.642809         2.714766
 C         3.058881         0.903736         1.684770
 O         3.360740        -0.543148         1.365475
 C         2.568732        -0.323642         0.101153
 C         2.633932         1.257043         0.319681
 C         1.580064         1.129605         1.349014
 C         1.118962        -0.229142         0.846871
 C         0.067261        -0.141511        -0.199442
 O         0.806370        -1.222446         1.762019
 H         3.826887         1.096715         3.669465
 H         4.887904         1.821685         2.450981
 H         3.481791         2.714024         2.954131
 H         2.798886        -0.842055        -0.872859
 H         2.875935         2.228757        -0.165682
 H         1.086876         1.962248         1.704212
 H         0.213774         0.678794        -1.045280
 H        -0.338025        -1.133422        -0.493039
 H        -0.769724         0.319685         0.215023
 H         1.636499        -1.733898         1.829076
