19
Iteration:   178
 C         3.942794         1.483624         2.825119
 C         3.052074         0.990104         1.623674
 O         3.299502        -0.504785         1.426546
 C         2.566192        -0.360370         0.261403
 C         2.760487         1.228010         0.129881
 C         1.576420         1.245768         1.152546
 C         1.105244        -0.224077         0.775248
 C        -0.086149        -0.171706        -0.139976
 O         0.801158        -1.159788         1.821941
 H         3.551686         1.006518         3.664722
 H         5.087712         1.436969         2.497958
 H         3.962655         2.568049         2.909658
 H         2.591766        -1.099909        -0.587601
 H         2.996761         1.873575        -0.715281
 H         1.080901         2.290296         1.505948
 H        -0.066880        -0.749162        -1.093148
 H        -0.821890        -0.781597         0.479465
 H        -0.363002         0.799930        -0.328016
 H         1.777139        -1.269114         2.242901
