19
Iteration:  1179
 C         4.015144         1.839692         2.493203
 C         3.122519         0.874382         1.709277
 O         3.434332        -0.508910         1.431356
 C         2.526965        -0.404047         0.277305
 C         2.637794         1.193521         0.340000
 C         1.571741         1.002267         1.576018
 C         1.116371        -0.264329         0.875175
 C         0.114392        -0.003203        -0.365105
 O         0.539391        -1.304661         1.653809
 H         4.238029         1.610087         3.548574
 H         4.846565         2.181867         1.948259
 H         3.370901         2.781935         2.697248
 H         2.668121        -1.041997        -0.548127
 H         2.777149         2.062811        -0.256431
 H         1.223312         1.853140         2.139038
 H        -0.656363         0.698816         0.228654
 H         0.399906         0.488271        -1.229660
 H        -0.417981        -0.852440        -0.689293
 H         1.123540        -1.901102         2.018393
