19
Iteration:  2977charge 0 multiplicity 1
 C         4.052329         1.804456         2.545478
 C         3.057482         0.999350         1.747075
 O         3.476890        -0.397874         1.429622
 C         2.538804        -0.308604         0.259338
 C         2.653432         1.175928         0.366245
 C         1.506019         1.041131         1.477822
 C         1.088594        -0.317698         0.837163
 C         0.080952        -0.021501        -0.235213
 O         0.531016        -1.474749         1.567211
 H         4.006828         1.842595         3.688276
 H         4.996002         1.283386         2.329022
 H         4.094348         2.952229         2.300054
 H         2.918611        -0.916750        -0.585223
 H         2.931983         2.072167        -0.258631
 H         1.021042         1.852230         2.155534
 H         0.149360         1.093283        -0.681953
 H         0.253496        -0.863719        -1.005430
 H        -0.988909        -0.063816         0.157503
 H         1.164873        -2.038879         2.062940
