19
Iteration:    33
 C         4.133970         1.706854         2.354728
 C         3.129080         0.870438         1.678632
 O         3.244713        -0.557841         1.555193
 C         2.492659        -0.409471         0.333921
 C         2.724030         1.126326         0.371789
 C         1.561733         1.175461         1.375132
 C         1.132189        -0.209910         0.815703
 C        -0.044870        -0.049146        -0.301612
 O         0.673167        -1.206372         1.762567
 H         4.017772         1.505407         3.439088
 H         5.147170         1.647115         2.037925
 H         3.708044         2.728334         2.317545
 H         2.720208        -1.093935        -0.471205
 H         3.236515         1.820618        -0.267311
 H         0.900713         2.001813         1.512453
 H        -0.504646         0.889548        -0.096712
 H         0.241684        -0.025874        -1.299657
 H        -0.698601        -0.903898        -0.171311
 H         1.406346        -1.140731         2.471448
