19
Iteration:  4867charge 0 multiplicity 1
 C         3.676059         1.501707         2.904818
 C         3.135725         0.978581         1.592514
 O         3.341176        -0.415990         1.404091
 C         2.556770        -0.446949         0.282607
 C         2.737488         1.141306         0.104134
 C         1.672178         1.166647         1.137483
 C         1.206474        -0.244970         0.738431
 C         0.070353        -0.314900        -0.327360
 O         0.663760        -0.868020         1.953914
 H         3.954981         0.468971         3.454350
 H         4.641215         2.037403         2.788764
 H         2.957795         1.979958         3.663731
 H         2.814735        -1.175099        -0.467793
 H         3.114128         1.772518        -0.628909
 H         1.121042         1.892134         1.772063
 H         0.560447         0.170947        -1.350561
 H        -0.124911        -1.364894        -0.435332
 H        -0.795538         0.327590        -0.072921
 H         1.428184        -1.190030         2.441640
