19
Iteration:  3408charge 0 multiplicity 1
 C         4.032356         1.824483         2.556999
 C         3.142649         0.983898         1.691938
 O         3.489915        -0.435719         1.441496
 C         2.519997        -0.328182         0.340252
 C         2.530785         1.206775         0.435998
 C         1.423794         0.989620         1.548795
 C         1.031141        -0.318761         0.849221
 C         0.131970        -0.023006        -0.446440
 O         0.651444        -1.396580         1.623071
 H         4.218133         1.299335         3.537152
 H         5.132784         1.860686         2.235478
 H         3.583828         2.876196         2.616093
 H         2.777716        -0.972863        -0.538404
 H         2.713111         1.943492        -0.466806
 H         0.773595         1.674593         2.057511
 H         0.672738         0.474476        -1.136638
 H        -0.108590        -0.996261        -0.779045
 H        -0.824129         0.646872        -0.278187
 H         1.455329        -1.778261         2.091734
