19
Iteration:  2030charge 0 multiplicity 1
 C         4.028307         1.668251         2.581677
 C         3.049523         1.006794         1.702295
 O         3.361562        -0.459912         1.463701
 C         2.574631        -0.291363         0.229453
 C         2.596078         1.246183         0.372226
 C         1.516567         1.069381         1.500824
 C         1.076336        -0.296805         0.800768
 C         0.053843        -0.027128        -0.248674
 O         0.737335        -1.425270         1.620376
 H         4.007178         1.345631         3.600249
 H         4.962236         1.339774         2.006579
 H         3.897649         2.766817         2.542756
 H         2.750096        -0.961277        -0.607667
 H         2.766009         2.016110        -0.310652
 H         0.929941         2.038406         1.744529
 H         0.417455         0.856681        -0.909127
 H        -0.010991        -0.857337        -0.974975
 H        -0.932880         0.094612         0.055682
 H         1.297638        -1.254133         2.336939
