19
Iteration:  4023
 C         3.752920         1.752312         2.752328
 C         3.076427         0.899517         1.691778
 O         3.505471        -0.438456         1.324882
 C         2.590660        -0.288583         0.190564
 C         2.629234         1.322381         0.310872
 C         1.573284         1.060711         1.405279
 C         1.148780        -0.281605         0.792548
 C         0.032156        -0.205921        -0.201244
 O         0.698888        -1.318481         1.659141
 H         3.257461         1.539750         3.787235
 H         4.813780         1.502207         3.013389
 H         4.041220         2.795687         2.602101
 H         2.869623        -0.741936        -0.750071
 H         2.710789         2.203992        -0.403706
 H         0.956203         1.670921         2.010750
 H         0.389041         0.531431        -0.994592
 H        -0.228896        -1.154185        -0.702054
 H        -0.791779         0.147291         0.340794
 H         1.487019        -1.757347         2.126290
