19
Iteration:  2166charge 0 multiplicity 1
 C         3.775736         1.461856         2.886814
 C         3.038816         0.927855         1.721032
 O         3.250578        -0.472839         1.364043
 C         2.523947        -0.212874         0.087105
 C         2.806110         1.262446         0.153562
 C         1.701427         1.305505         1.221198
 C         1.058948        -0.156153         0.768166
 C        -0.065974        -0.318540        -0.157730
 O         0.915041        -1.209381         1.793367
 H         3.308049         1.057334         3.918164
 H         4.809449         1.066426         2.892037
 H         3.841952         2.565401         2.927123
 H         2.889850        -0.818776        -0.797331
 H         3.275121         1.916970        -0.538957
 H         1.111393         2.215320         1.580540
 H        -0.128079         0.476550        -0.854910
 H        -0.047650        -1.410197        -0.508164
 H        -1.092586        -0.476020         0.500791
 H         1.728313        -1.175642         2.280368
