19
Iteration:  2220
 C         3.785907         1.501346         2.820001
 C         3.040483         0.909691         1.651975
 O         3.398713        -0.432664         1.257045
 C         2.588478        -0.342936         0.110427
 C         2.749047         1.316297         0.260368
 C         1.619329         1.112706         1.327538
 C         1.037000        -0.242862         0.793253
 C         0.031099        -0.197801        -0.217878
 O         0.776565        -1.140465         1.882151
 H         3.235409         1.541725         3.845052
 H         4.788698         1.048308         2.736234
 H         3.874314         2.599766         2.701225
 H         2.802952        -1.156820        -0.650453
 H         2.807483         2.066800        -0.439246
 H         1.027434         1.906964         1.895000
 H         0.426218         0.432565        -0.964955
 H        -0.062403        -1.201881        -0.721086
 H        -1.035623         0.251711         0.112084
 H         1.531037        -1.257477         2.393985
