19
Iteration:  1605
 C         4.084797         1.724345         2.518577
 C         3.096129         0.966358         1.700448
 O         3.398011        -0.445071         1.478298
 C         2.539108        -0.325719         0.280854
 C         2.573323         1.253939         0.406500
 C         1.559139         1.031474         1.619451
 C         1.136038        -0.239310         0.812995
 C        -0.024069        -0.089460        -0.290754
 O         0.628631        -1.363226         1.534341
 H         4.072916         1.383845         3.581074
 H         5.158292         1.497826         2.118842
 H         3.934126         2.803226         2.459413
 H         2.845661        -0.972941        -0.615312
 H         2.855198         2.016171        -0.393968
 H         1.017192         1.821391         1.924250
 H        -0.328203         1.055977        -0.608842
 H         0.467728        -0.462339        -1.176217
 H        -0.952737        -0.619293        -0.173879
 H         1.336701        -1.719312         2.198072
