19
Iteration:  3948charge 0 multiplicity 1
 C         3.751714         1.522059         2.914950
 C         3.081221         1.043552         1.698342
 O         3.410996        -0.430581         1.355471
 C         2.584576        -0.237079         0.124198
 C         2.721918         1.277474         0.253163
 C         1.592080         1.156697         1.199854
 C         1.066392        -0.281551         0.765812
 C        -0.065915        -0.310949        -0.182616
 O         0.848325        -1.213478         1.756286
 H         3.943587         0.855222         3.743342
 H         4.772628         1.795526         2.628088
 H         3.415622         2.459763         3.362154
 H         2.941510        -0.898494        -0.682350
 H         2.762882         2.039175        -0.611450
 H         1.075258         2.049967         1.583662
 H         0.051193         0.592328        -0.891782
 H        -0.129239        -1.274433        -0.745900
 H        -1.082676        -0.306536         0.380373
 H         1.732979        -1.310583         2.243366
