19
Iteration:   869charge 0 multiplicity 1
 C         3.769561         1.535756         2.778872
 C         3.115917         0.878058         1.650937
 O         3.439839        -0.535633         1.343894
 C         2.542967        -0.356379         0.161651
 C         2.753246         1.283164         0.301227
 C         1.687541         1.211049         1.269251
 C         1.079030        -0.153330         0.755840
 C        -0.130946        -0.235042        -0.251193
 O         0.768018        -1.076280         1.893907
 H         3.632375         1.247086         3.786640
 H         4.885161         1.434675         2.620524
 H         3.353918         2.485391         2.571019
 H         2.731976        -1.133563        -0.615685
 H         3.051211         1.950369        -0.551935
 H         1.237117         1.872816         1.888040
 H        -1.013448        -0.267769         0.261074
 H        -0.199564         0.715059        -0.742070
 H         0.092575        -1.142383        -0.960056
 H         1.512537        -1.587460         2.027624
