19
Iteration:   716
 C         4.037074         1.737193         2.509804
 C         3.097541         0.959607         1.694356
 O         3.351106        -0.437222         1.532652
 C         2.551522        -0.372745         0.317696
 C         2.614681         1.190907         0.298275
 C         1.571243         1.100462         1.457918
 C         1.103315        -0.291838         0.829507
 C         0.060630         0.032191        -0.229182
 O         0.601179        -1.408265         1.575650
 H         4.093709         1.399660         3.515742
 H         5.067214         1.625863         2.012231
 H         3.961256         2.853453         2.574316
 H         2.917006        -0.845037        -0.614665
 H         2.900752         1.788797        -0.548745
 H         1.037711         1.834628         2.157131
 H        -0.885181         0.126145         0.248255
 H         0.290441         0.828909        -0.875378
 H         0.015984        -1.000450        -0.911202
 H         1.335822        -1.623989         2.259419
