19
Iteration:  3769charge 0 multiplicity 1
 C         3.808186         1.478920         2.919295
 C         3.063109         0.965586         1.651637
 O         3.401662        -0.428796         1.280410
 C         2.606203        -0.278162         0.117888
 C         2.671835         1.241742         0.239889
 C         1.574042         1.159294         1.286652
 C         1.064558        -0.206017         0.802106
 C        -0.009216        -0.340783        -0.282436
 O         0.840754        -1.108613         1.909774
 H         3.536437         0.891672         3.814059
 H         4.859687         1.659264         2.710015
 H         3.528058         2.497705         3.051286
 H         2.756805        -0.832170        -0.825545
 H         2.722518         2.082122        -0.548010
 H         1.100748         2.038150         1.636063
 H         0.246888         0.335694        -1.179058
 H        -0.245476        -1.234396        -0.903189
 H        -1.041934        -0.083110         0.076946
 H         1.731489        -1.262968         2.392860
