19
Iteration:  3852charge 0 multiplicity 1
 C         3.902001         1.805971         2.546771
 C         3.078848         0.984291         1.740877
 O         3.407125        -0.434094         1.524671
 C         2.656867        -0.363524         0.297233
 C         2.584661         1.218986         0.339484
 C         1.585438         1.081765         1.457367
 C         1.171759        -0.272473         0.762598
 C         0.017719        -0.042516        -0.201221
 O         0.641274        -1.474832         1.507023
 H         3.827904         1.707941         3.603361
 H         5.010239         1.603779         2.421411
 H         3.702695         2.909942         2.396866
 H         2.919133        -1.000316        -0.567900
 H         2.819732         1.943565        -0.520625
 H         0.861458         1.883624         1.785083
 H         0.166759         0.725567        -0.851267
 H        -0.169019        -1.001372        -0.607588
 H        -0.864672         0.249515         0.481321
 H         1.396133        -1.703210         2.121072
