19
Iteration:  4348
 C         3.846125         1.715561         2.719462
 C         3.023580         0.976368         1.689275
 O         3.412286        -0.434342         1.450320
 C         2.617896        -0.355604         0.228642
 C         2.557436         1.178083         0.192971
 C         1.506460         1.112378         1.437348
 C         1.135251        -0.319440         0.793256
 C         0.026756        -0.074950        -0.277200
 O         0.829374        -1.334442         1.684482
 H         3.227301         1.861257         3.681639
 H         4.713532         1.112083         3.050492
 H         4.258090         2.679633         2.421519
 H         3.057940        -1.013487        -0.535201
 H         2.618043         2.063401        -0.447885
 H         0.839436         1.968356         1.771971
 H         0.529503         0.767981        -0.959062
 H         0.079243        -1.017895        -0.863232
 H        -0.953584        -0.001231         0.093486
 H         1.614797        -1.179446         2.310218
