19
Iteration:   113
 C         3.911207         1.704350         2.611892
 C         3.145650         0.884814         1.689669
 O         3.426902        -0.543200         1.344177
 C         2.540409        -0.423447         0.178944
 C         2.690409         1.109036         0.226211
 C         1.590478         1.056149         1.441982
 C         1.091557        -0.233067         0.855563
 C         0.053236        -0.087246        -0.203906
 O         0.575464        -1.078460         1.817199
 H         3.844617         1.385464         3.599512
 H         5.001541         1.846430         2.321887
 H         3.604208         2.714271         2.499211
 H         2.730687        -1.162610        -0.628317
 H         2.900083         1.933753        -0.484466
 H         1.164339         2.088322         1.649918
 H         0.397268         0.377850        -1.141697
 H        -0.297461        -1.123842        -0.434445
 H        -0.668831         0.566655         0.086590
 H         1.418951        -1.077918         2.436126
