19
Iteration:  3518charge 0 multiplicity 1
 C         3.645378         1.494503         2.867764
 C         3.035938         0.856766         1.608295
 O         3.457114        -0.493838         1.322859
 C         2.586483        -0.316636         0.213006
 C         2.745752         1.295347         0.214214
 C         1.575793         1.171411         1.245558
 C         1.083658        -0.163748         0.814662
 C        -0.103105        -0.220055        -0.180043
 O         0.986291        -1.143967         1.753787
 H         3.019988         1.251241         3.740065
 H         4.772955         1.394633         2.839092
 H         3.346631         2.548947         2.837835
 H         2.944263        -0.970385        -0.556438
 H         3.002492         2.123835        -0.466574
 H         1.127277         2.006056         1.820380
 H        -0.203046         0.588767        -0.881928
 H        -0.196721        -1.200355        -0.625423
 H        -1.066524        -0.186672         0.442976
 H         1.745860        -1.026436         2.300628
