19
Iteration:  4961
 C         3.933930         1.850533         2.567695
 C         3.087961         0.991693         1.655300
 O         3.424824        -0.415526         1.550431
 C         2.566569        -0.527869         0.445757
 C         2.638539         1.032440         0.261692
 C         1.590904         1.082976         1.437210
 C         1.153546        -0.230596         0.847780
 C         0.197038         0.011793        -0.365277
 O         0.469634        -1.328363         1.585782
 H         3.410617         2.223667         3.404305
 H         4.794618         1.233535         2.863006
 H         4.340112         2.774680         2.073552
 H         2.683335        -1.312568        -0.305348
 H         2.912636         1.689463        -0.523649
 H         0.986085         1.851188         1.884807
 H         0.330447         0.890023        -0.838556
 H         0.581878        -0.859613        -1.021935
 H        -0.917734         0.103733        -0.203559
 H         0.951979        -1.493311         2.377647
