19
Iteration:  3391
 C         3.897421         1.729630         2.579298
 C         3.022540         0.917379         1.770900
 O         3.517594        -0.403338         1.394973
 C         2.536946        -0.377034         0.305543
 C         2.485643         1.240902         0.317577
 C         1.545943         1.107375         1.481017
 C         1.147094        -0.231630         0.861623
 C         0.159791        -0.059532        -0.284365
 O         0.642314        -1.425295         1.591229
 H         3.939413         1.485316         3.655519
 H         4.923307         1.556113         2.281923
 H         3.657794         2.740612         2.367397
 H         2.771151        -1.109747        -0.444215
 H         2.729545         2.089326        -0.265047
 H         0.981179         1.863271         2.041636
 H         0.717350         0.499387        -1.184133
 H        -0.177979        -1.002371        -0.813751
 H        -0.633072         0.487225         0.103149
 H         1.397684        -1.546875         2.186978
