19
Iteration:  1845
 C         4.014659         1.768698         2.503842
 C         3.122329         0.983033         1.640146
 O         3.458457        -0.423890         1.485378
 C         2.524415        -0.394323         0.351547
 C         2.501657         1.129647         0.346445
 C         1.603698         1.018463         1.618245
 C         1.098907        -0.300769         0.851231
 C         0.119243         0.096825        -0.271074
 O         0.580125        -1.416185         1.489648
 H         3.854456         1.618972         3.613716
 H         5.132539         1.538106         2.207044
 H         3.737709         2.835771         2.430434
 H         2.680928        -1.202936        -0.375126
 H         2.557142         1.917810        -0.408329
 H         1.252962         2.026619         1.979910
 H         0.220447         1.255288        -0.578853
 H         0.213982        -0.566024        -1.265928
 H        -0.809572        -0.133478         0.255841
 H         1.133208        -1.742183         2.143393
