19
Iteration:  2051charge 0 multiplicity 1
 C         4.178057         1.776808         2.542003
 C         3.070180         0.931748         1.797783
 O         3.406561        -0.361383         1.473375
 C         2.550708        -0.338083         0.256013
 C         2.525382         1.264465         0.377841
 C         1.504370         1.042348         1.437232
 C         1.121459        -0.330548         0.880352
 C         0.119645        -0.028815        -0.316017
 O         0.537692        -1.454962         1.564333
 H         4.417950         1.404432         3.512696
 H         5.123782         1.685706         1.898756
 H         3.892048         2.811475         2.645648
 H         2.890127        -0.993913        -0.585882
 H         2.622295         2.067658        -0.285746
 H         0.765860         1.579527         2.164218
 H         0.473422         0.782140        -1.030241
 H        -0.236369        -0.889531        -0.874470
 H        -0.733696         0.341997         0.084590
 H         1.244085        -1.813041         2.254200
