19
Iteration:  4839
 C         3.633982         1.503362         2.853533
 C         3.074745         0.872249         1.612486
 O         3.468773        -0.539118         1.342664
 C         2.678597        -0.360744         0.252318
 C         2.792694         1.116307         0.210922
 C         1.625947         1.235084         1.105471
 C         1.054768        -0.135219         0.799574
 C         0.070835        -0.353765        -0.297886
 O         0.623800        -0.876398         1.969688
 H         3.975424         0.793604         3.547845
 H         4.514553         2.056307         2.545608
 H         2.946094         2.062320         3.397699
 H         2.895994        -0.947897        -0.658587
 H         3.131419         1.894593        -0.504579
 H         1.226194         2.196951         1.547395
 H         0.502474         0.208678        -1.022812
 H         0.128816        -1.466810        -0.615138
 H        -1.016593        -0.117816        -0.122047
 H         1.447983        -0.815177         2.537512
