19
Iteration:  2821
 C         3.863364         1.530446         2.827432
 C         3.072815         0.902280         1.697519
 O         3.380870        -0.531503         1.326042
 C         2.510565        -0.331913         0.160829
 C         2.682881         1.302278         0.305489
 C         1.566537         1.214864         1.309056
 C         1.056287        -0.206260         0.797659
 C        -0.076051        -0.206404        -0.345400
 O         0.916887        -1.159017         1.875576
 H         3.503581         1.092609         3.732255
 H         4.952198         1.556849         2.592808
 H         3.592777         2.580357         2.723762
 H         2.721422        -0.806739        -0.772057
 H         2.886470         1.983279        -0.486020
 H         0.996445         2.032505         1.798559
 H         0.130313         0.603065        -1.138487
 H        -0.035068        -1.223523        -0.683266
 H        -1.036657        -0.139162         0.049766
 H         1.824551        -1.357908         2.017443
