19
Iteration:  2435
 C         3.710047         1.555618         2.831786
 C         3.040350         0.913537         1.654714
 O         3.365516        -0.429877         1.392660
 C         2.553161        -0.296271         0.135542
 C         2.703201         1.230642         0.280681
 C         1.658719         1.117963         1.306354
 C         1.117805        -0.231683         0.744346
 C        -0.111815        -0.159680        -0.144173
 O         0.954792        -1.217713         1.698817
 H         3.252526         1.258157         3.764440
 H         4.637165         1.083640         2.812802
 H         3.763808         2.655632         2.818356
 H         2.946422        -1.027316        -0.646095
 H         2.909302         1.868688        -0.525022
 H         1.151937         2.144501         1.555101
 H         0.064384         0.485530        -0.991533
 H        -0.370918        -1.110042        -0.632961
 H        -0.908289         0.424916         0.406164
 H         1.790490        -1.248153         2.346592
