19
Iteration:  3990
 C         3.621801         1.618351         2.819171
 C         3.048203         0.879142         1.659223
 O         3.408848        -0.504590         1.391725
 C         2.590046        -0.304059         0.161141
 C         2.728198         1.236518         0.249914
 C         1.551677         1.140471         1.293041
 C         1.126154        -0.213309         0.742234
 C        -0.074359        -0.168044        -0.141839
 O         1.031210        -1.219517         1.719988
 H         3.094813         1.362538         3.842308
 H         4.662297         1.207278         2.977470
 H         3.356086         2.692746         2.810954
 H         2.940031        -0.725467        -0.767792
 H         2.724723         2.076008        -0.515230
 H         1.047435         2.036632         1.670100
 H        -0.134465         0.785284        -0.804131
 H        -0.285938        -1.022763        -0.798054
 H        -1.004864        -0.063717         0.311158
 H         1.886155        -1.300791         2.173994
