19
Iteration:  1046
 C         3.776211         1.551622         2.826216
 C         3.131070         0.856010         1.652949
 O         3.430088        -0.527797         1.286767
 C         2.637830        -0.374938         0.155752
 C         2.789406         1.195045         0.248634
 C         1.567127         1.215566         1.228535
 C         1.042232        -0.141776         0.798566
 C        -0.094207        -0.207162        -0.179234
 O         0.762662        -1.066976         1.862248
 H         3.397403         1.050791         3.777098
 H         4.905341         1.519270         2.836544
 H         3.502893         2.600930         2.748523
 H         2.664101        -1.159178        -0.721049
 H         3.081102         2.057560        -0.381341
 H         1.007889         2.084427         1.716194
 H        -0.988866        -0.551281         0.408615
 H        -0.222696         0.750363        -0.777875
 H         0.003037        -1.046814        -0.860734
 H         1.787934        -1.182802         2.175980
