19
Iteration:  3415charge 0 multiplicity 1
 C         4.060289         1.842988         2.563569
 C         3.183932         1.001950         1.750439
 O         3.444276        -0.445694         1.470346
 C         2.501600        -0.271505         0.290022
 C         2.497855         1.207635         0.401121
 C         1.496181         0.941791         1.559487
 C         1.049651        -0.306070         0.786921
 C         0.120712        -0.060719        -0.426299
 O         0.598628        -1.420856         1.653114
 H         4.315468         1.297626         3.451795
 H         5.036320         1.982762         2.124091
 H         3.605369         2.813315         2.712222
 H         2.856314        -0.902814        -0.537199
 H         2.628198         1.960366        -0.263115
 H         0.829792         1.795552         1.897749
 H         0.833132         0.425032        -1.199930
 H        -0.130057        -1.005738        -0.988398
 H        -0.740867         0.553005        -0.178843
 H         1.561488        -1.600286         1.999421
