19
Iteration:  1238charge 0 multiplicity 1
 C         3.961542         1.563288         2.743892
 C         3.057069         0.949807         1.622730
 O         3.321126        -0.499686         1.494339
 C         2.581119        -0.337401         0.182753
 C         2.699389         1.239691         0.195484
 C         1.568202         1.140338         1.301037
 C         1.064268        -0.219820         0.797457
 C        -0.085372        -0.141698        -0.173376
 O         0.809182        -1.188404         1.733726
 H         3.626329         1.136244         3.711465
 H         5.052758         1.221311         2.578621
 H         3.875319         2.630687         2.734433
 H         2.894262        -1.063687        -0.638451
 H         2.975030         2.062995        -0.520178
 H         1.050902         2.098130         1.645049
 H        -1.082338        -0.201989         0.322100
 H        -0.037473         0.927547        -0.678514
 H         0.074421        -1.031071        -0.937677
 H         1.741209        -1.365324         2.182480
