19
Iteration:  4438charge 0 multiplicity 1
 C         3.649521         1.577765         2.805860
 C         3.060208         0.932712         1.626497
 O         3.521232        -0.425766         1.351034
 C         2.581406        -0.271498         0.164782
 C         2.707088         1.191271         0.230585
 C         1.577473         1.129012         1.246572
 C         1.124952        -0.243043         0.830963
 C         0.049270        -0.257051        -0.214195
 O         0.749689        -1.126344         1.818869
 H         4.007298         0.765137         3.411054
 H         4.587017         2.219870         2.801500
 H         2.886251         2.049795         3.413939
 H         3.035377        -0.881562        -0.606659
 H         2.864086         1.983821        -0.489876
 H         1.091096         1.974072         1.632331
 H         0.273618         0.480052        -0.989637
 H        -0.203039        -1.265084        -0.706551
 H        -0.968019        -0.031678         0.239071
 H         1.512250        -1.428915         2.366105
