19
Iteration:  4820
 C         3.774915         1.639971         2.837507
 C         3.094409         0.873776         1.670863
 O         3.360600        -0.562544         1.454195
 C         2.518041        -0.404377         0.160260
 C         2.899294         1.200935         0.215120
 C         1.593459         1.183196         1.226823
 C         1.125170        -0.161994         0.727438
 C         0.041651        -0.356486        -0.350960
 O         0.674243        -0.957726         1.875825
 H         3.956767         0.976985         3.656274
 H         4.685727         2.205757         2.533151
 H         2.987735         2.340763         3.224856
 H         2.596220        -1.212952        -0.595037
 H         3.429833         1.972302        -0.456411
 H         1.018753         2.009466         1.546831
 H         0.104626         0.373195        -1.180034
 H         0.121490        -1.513723        -0.640692
 H        -0.936784        -0.081250         0.251426
 H         1.329592        -0.707738         2.620350
