19
Iteration:  1767charge 0 multiplicity 1
 C         3.880336         1.525523         2.741759
 C         3.050459         0.897428         1.697855
 O         3.325272        -0.523623         1.397629
 C         2.499714        -0.291688         0.162338
 C         2.670279         1.279658         0.297654
 C         1.624950         1.221916         1.397364
 C         1.123767        -0.175062         0.744548
 C        -0.043308        -0.226535        -0.233827
 O         0.848272        -1.150039         1.713312
 H         3.781631         0.873793         3.683412
 H         4.993424         1.472519         2.452608
 H         3.535798         2.539217         2.846044
 H         2.884832        -0.950965        -0.676142
 H         3.096174         1.981217        -0.399152
 H         0.984989         1.887410         1.792703
 H        -0.082369         0.743860        -0.748281
 H         0.040578        -1.211948        -0.846170
 H        -0.984281        -0.215176         0.334114
 H         1.710241        -1.375401         2.178315
