19
Iteration:  3979charge 0 multiplicity 1
 C         3.588004         1.511263         2.838191
 C         3.026364         0.912977         1.612429
 O         3.369667        -0.495563         1.472870
 C         2.565881        -0.294843         0.153268
 C         2.643247         1.299380         0.228123
 C         1.580224         1.178152         1.220710
 C         1.162416        -0.222823         0.755325
 C        -0.082371        -0.190917        -0.122950
 O         1.057915        -1.178073         1.697409
 H         3.169011         0.969443         3.776518
 H         4.701181         1.483558         2.689922
 H         3.495895         2.605567         2.706928
 H         2.911405        -1.059317        -0.541954
 H         3.182234         2.001421        -0.480909
 H         1.111899         1.886616         1.916008
 H         0.020843         0.776365        -0.754743
 H        -0.037003        -1.068756        -0.780880
 H        -0.834900        -0.165261         0.605202
 H         2.050155        -1.232121         2.000314
