19
Iteration:  2285
 C         4.017072         1.849104         2.476878
 C         3.102723         0.909812         1.765515
 O         3.385083        -0.562661         1.564930
 C         2.634377        -0.344885         0.248886
 C         2.671322         1.246629         0.392706
 C         1.521995         1.088252         1.390208
 C         1.090518        -0.326706         0.783390
 C         0.019085         0.012432        -0.234569
 O         0.594555        -1.385618         1.570590
 H         4.392331         1.394966         3.488858
 H         4.790449         2.108597         1.731799
 H         3.424339         2.689065         2.935355
 H         3.166817        -0.914867        -0.600641
 H         3.124411         1.824871        -0.331560
 H         0.776138         1.857902         1.837032
 H         0.434370         0.788242        -0.745604
 H        -0.477523        -0.763528        -0.850366
 H        -0.898253         0.301770         0.455929
 H         1.316184        -1.607121         2.123934
