19
Iteration:  1385
 C         4.015567         1.819404         2.440844
 C         3.095160         0.823330         1.751383
 O         3.429236        -0.526250         1.475743
 C         2.565666        -0.403838         0.245860
 C         2.621703         1.177279         0.421628
 C         1.574173         1.126791         1.463286
 C         1.044980        -0.305628         0.797411
 C         0.032032         0.030130        -0.254827
 O         0.595646        -1.284344         1.642933
 H         4.285335         1.419957         3.426019
 H         4.871280         1.919748         1.846313
 H         3.495032         2.839889         2.605646
 H         2.939206        -1.077571        -0.466999
 H         3.299067         1.816239        -0.203089
 H         1.064731         1.981814         2.090417
 H        -0.988169         0.366422         0.244191
 H         0.346197         0.904466        -0.898990
 H        -0.079124        -0.876612        -0.918365
 H         1.382220        -1.807959         2.079650
