19
Iteration:  4342
 C         3.826482         1.751686         2.687586
 C         3.038031         0.931120         1.660695
 O         3.437169        -0.445798         1.471030
 C         2.647593        -0.343140         0.275171
 C         2.520063         1.177489         0.237865
 C         1.542904         1.071340         1.408967
 C         1.153879        -0.287800         0.789194
 C         0.053119        -0.037666        -0.284586
 O         0.811221        -1.335795         1.653986
 H         3.271400         1.978611         3.549965
 H         4.682882         1.223092         3.160160
 H         4.224060         2.745561         2.422736
 H         2.897372        -1.035552        -0.534954
 H         2.594555         1.980105        -0.471727
 H         0.939420         1.770810         1.944355
 H         0.070455         0.772507        -0.947350
 H        -0.016727        -0.976018        -0.896829
 H        -1.036761        -0.028175         0.130367
 H         1.433789        -1.351974         2.428126
