19
Iteration:   189
 C         3.877948         1.508415         2.729501
 C         3.096270         0.982616         1.641074
 O         3.396367        -0.460049         1.396034
 C         2.564495        -0.335676         0.177565
 C         2.745359         1.168133         0.185499
 C         1.641052         1.206345         1.237621
 C         1.070793        -0.226199         0.827039
 C        -0.135563        -0.171824        -0.185602
 O         0.752155        -1.150894         1.866525
 H         3.573520         1.057472         3.645487
 H         4.977616         1.097251         2.705958
 H         3.717581         2.572510         2.874431
 H         3.004206        -1.030444        -0.578894
 H         3.042662         1.919803        -0.524226
 H         1.078321         2.220505         1.443185
 H         0.090951        -0.845640        -1.043143
 H        -1.118929        -0.453372         0.320760
 H        -0.304578         0.771208        -0.587455
 H         1.651509        -1.375525         2.278242
