19
Iteration:  4296
 C         3.821263         1.984705         2.643992
 C         3.157017         0.955650         1.742795
 O         3.498122        -0.516186         1.432471
 C         2.632436        -0.352869         0.265123
 C         2.597578         1.233649         0.364811
 C         1.599697         1.032104         1.428615
 C         1.099811        -0.323818         0.810312
 C         0.049884        -0.040140        -0.269465
 O         0.574787        -1.469766         1.598442
 H         3.416855         2.535311         3.470950
 H         4.760398         1.555724         3.107226
 H         4.246938         2.712570         1.984604
 H         3.081422        -0.920488        -0.582913
 H         2.703831         1.889128        -0.513001
 H         0.838258         1.721687         1.946413
 H         0.101669         1.072206        -0.702785
 H        -0.030964        -0.870866        -1.075629
 H        -0.884279        -0.237059         0.323942
 H         1.519148        -1.831447         1.802033
