19
Iteration:  4537charge 0 multiplicity 1
 C         4.023545         1.779812         2.605007
 C         3.013452         0.965939         1.768082
 O         3.380687        -0.393299         1.521611
 C         2.592546        -0.316637         0.270273
 C         2.668382         1.218648         0.318717
 C         1.556238         1.094112         1.406568
 C         1.038275        -0.282077         0.799535
 C         0.063239        -0.168244        -0.385387
 O         0.662494        -1.406523         1.645203
 H         4.942009         1.266210         2.726799
 H         4.208482         2.851266         2.254335
 H         3.763023         1.933152         3.700137
 H         2.863112        -1.009904        -0.537866
 H         3.112027         2.043032        -0.294502
 H         0.819903         1.761455         1.884266
 H         0.453467         0.470123        -1.109364
 H        -0.150487        -1.176868        -0.877288
 H        -1.002193         0.211525        -0.132852
 H         1.239734        -1.321586         2.413563
