19
Iteration:  4995
 C         3.911897         1.791765         2.639264
 C         3.113568         0.958400         1.718321
 O         3.471365        -0.439048         1.447193
 C         2.655187        -0.413468         0.312805
 C         2.651147         1.179619         0.311071
 C         1.554293         1.031125         1.368668
 C         1.107267        -0.279012         0.832157
 C         0.170086        -0.143700        -0.433216
 O         0.403880        -1.188095         1.767280
 H         3.317934         2.501616         3.152086
 H         4.349758         1.194719         3.432102
 H         4.758742         2.238749         2.042748
 H         2.857261        -1.066879        -0.527069
 H         3.033624         1.865097        -0.409309
 H         1.037959         1.827562         1.944602
 H         0.457366         0.709828        -1.018950
 H         0.485249        -1.030043        -1.106302
 H        -0.920485        -0.443295        -0.191776
 H         1.061624        -1.522045         2.354465
