19
Iteration:  1617charge 0 multiplicity 1
 C         4.147419         1.717883         2.549787
 C         3.105114         0.916467         1.788030
 O         3.412430        -0.426460         1.502965
 C         2.518879        -0.312976         0.276474
 C         2.531666         1.239532         0.385587
 C         1.513050         1.109126         1.448347
 C         1.051012        -0.279378         0.798728
 C         0.041762        -0.010411        -0.269421
 O         0.669851        -1.456461         1.527631
 H         4.142266         1.560697         3.639508
 H         5.171989         1.415140         2.081078
 H         3.999777         2.759310         2.375012
 H         2.961666        -0.961760        -0.570465
 H         2.647946         2.090656        -0.364225
 H         0.819229         1.758201         1.901394
 H        -0.221032         1.161668        -0.546490
 H         0.171384        -0.587022        -1.142772
 H        -0.772461        -0.460155         0.273655
 H         1.265050        -1.446121         2.222277
