19
Iteration:  2117
 C         3.816492         1.692867         2.673242
 C         3.085124         0.927882         1.693139
 O         3.458426        -0.504968         1.367032
 C         2.642771        -0.328967         0.130918
 C         2.640004         1.154927         0.329849
 C         1.528321         1.067720         1.402868
 C         1.175930        -0.288765         0.825470
 C         0.040856         0.013575        -0.277450
 O         0.680695        -1.292524         1.769224
 H         3.939414         1.183856         3.576588
 H         4.843087         1.992076         2.367659
 H         3.273591         2.634697         2.835126
 H         2.788442        -0.977656        -0.720970
 H         2.799553         1.981668        -0.334167
 H         0.886412         1.875372         1.815996
 H         0.363722         0.856246        -0.963451
 H        -0.340212        -0.853546        -0.748931
 H        -0.776186         0.361526         0.231864
 H         1.260327        -1.439436         2.509286
