19
Iteration:  1098
 C         3.906148         1.562740         2.753204
 C         3.062915         0.947931         1.666799
 O         3.398306        -0.520994         1.430544
 C         2.490681        -0.355804         0.241633
 C         2.704584         1.308463         0.251283
 C         1.614040         1.242845         1.228998
 C         1.069448        -0.216894         0.817868
 C        -0.036514        -0.188897        -0.210665
 O         0.795267        -1.205530         1.747900
 H         3.686576         1.125881         3.767100
 H         5.005120         1.183929         2.615732
 H         3.835737         2.630848         2.746846
 H         2.737939        -1.068676        -0.619206
 H         2.971653         1.889938        -0.603951
 H         0.855162         2.027217         1.555556
 H        -0.983891        -0.024524         0.288362
 H         0.035255         0.714987        -0.894339
 H        -0.214828        -1.249365        -0.647075
 H         1.653521        -1.470542         2.034867
