19
Iteration:   163
 C         3.927889         1.518110         2.737548
 C         3.090220         0.951527         1.661921
 O         3.218458        -0.471390         1.512816
 C         2.474888        -0.409448         0.162437
 C         2.735453         1.154611         0.159158
 C         1.614714         1.248688         1.187909
 C         1.135155        -0.125985         0.796882
 C        -0.114273        -0.209732        -0.103287
 O         0.905256        -1.119388         1.739675
 H         3.774915         0.844908         3.679916
 H         5.013818         1.288920         2.546236
 H         3.795121         2.592419         2.998955
 H         2.886169        -1.173333        -0.413002
 H         3.181036         1.887901        -0.557057
 H         0.962759         1.944018         1.526336
 H         0.172916        -0.539356        -1.141070
 H        -0.819256        -0.930641         0.304977
 H        -0.627629         0.878971        -0.328117
 H         1.722802        -1.131987         2.197694
