19
Iteration:  1196
 C         4.005374         1.785919         2.520164
 C         3.146757         0.927859         1.678449
 O         3.374448        -0.513274         1.505691
 C         2.542506        -0.358274         0.282240
 C         2.579491         1.169453         0.341877
 C         1.645894         1.085949         1.494691
 C         1.081788        -0.267566         0.800098
 C         0.042320        -0.012219        -0.199121
 O         0.598604        -1.321685         1.598780
 H         4.131495         1.278540         3.499365
 H         4.976625         1.924346         1.945545
 H         3.527363         2.692894         2.797432
 H         2.967735        -1.081776        -0.509917
 H         2.786698         1.876722        -0.506074
 H         0.872909         1.737977         1.831102
 H        -0.788360         0.563991         0.022860
 H         0.494607         0.663433        -1.037738
 H        -0.008941        -1.029491        -0.728848
 H         1.348131        -1.511995         2.087246
