19
Iteration:  2095
 C         3.914007         1.830198         2.625299
 C         3.156874         0.889159         1.694867
 O         3.487931        -0.491924         1.368683
 C         2.494883        -0.360087         0.236871
 C         2.578118         1.249552         0.358845
 C         1.618404         0.977095         1.518720
 C         1.073542        -0.292055         0.824102
 C         0.130736         0.002508        -0.269392
 O         0.558684        -1.362936         1.613186
 H         4.280786         1.543820         3.565305
 H         4.807551         2.225304         2.068308
 H         3.290700         2.734767         2.747774
 H         2.751953        -1.113026        -0.514753
 H         2.752059         2.018243        -0.333154
 H         1.148505         1.724035         2.235848
 H         0.743716         0.609876        -1.012640
 H        -0.130193        -0.969293        -0.641142
 H        -0.727665         0.490501        -0.075698
 H         1.147446        -1.419562         2.462198
