19
Iteration:  1807
 C         3.943943         1.795674         2.600334
 C         3.143321         0.867816         1.739441
 O         3.453383        -0.492509         1.382965
 C         2.543666        -0.323443         0.264698
 C         2.599678         1.199177         0.337070
 C         1.625000         1.070210         1.477237
 C         1.109943        -0.330628         0.830138
 C         0.058488         0.033791        -0.280285
 O         0.554077        -1.386326         1.657743
 H         3.783388         1.689418         3.652075
 H         4.925735         1.647878         2.350627
 H         3.892172         2.873812         2.297466
 H         2.776973        -0.928195        -0.625632
 H         3.070546         2.022373        -0.272481
 H         1.047179         1.984773         1.800571
 H         0.038284         1.061121        -0.319285
 H         0.051028        -0.308585        -1.346985
 H        -0.943877        -0.274406         0.101219
 H         1.360078        -1.736341         2.176903
