19
Iteration:  2150charge 0 multiplicity 1
 C         3.817174         1.501917         2.868060
 C         3.118318         0.976503         1.590416
 O         3.326653        -0.501243         1.410018
 C         2.554446        -0.316774         0.170825
 C         2.720368         1.239120         0.260779
 C         1.566952         1.243700         1.250322
 C         1.152093        -0.173985         0.751231
 C        -0.100001        -0.216368        -0.180560
 O         0.880368        -1.203639         1.761362
 H         3.344214         1.061777         3.678269
 H         4.905450         1.380342         2.822393
 H         3.550905         2.576184         3.018006
 H         2.734283        -1.083562        -0.545400
 H         2.963281         2.014419        -0.518659
 H         1.039543         2.096477         1.620377
 H        -0.127825         0.589012        -0.990487
 H        -0.157809        -1.116321        -0.757445
 H        -0.936961        -0.077747         0.381441
 H         1.838631        -1.473061         2.100902
