19
Iteration:  4883charge 0 multiplicity 1
 C         3.762330         1.553705         2.867462
 C         3.052444         0.963879         1.615898
 O         3.360634        -0.502195         1.521565
 C         2.604129        -0.411506         0.208286
 C         2.817397         1.117414         0.143347
 C         1.621196         1.223614         1.136841
 C         1.051627        -0.161002         0.833993
 C         0.067960        -0.243406        -0.334197
 O         0.705839        -1.029862         1.865221
 H         4.003386         0.773379         3.528456
 H         4.690342         2.099718         2.659520
 H         3.058499         2.186617         3.368764
 H         2.900739        -1.267354        -0.438326
 H         3.063483         1.798170        -0.729213
 H         1.060789         2.153675         1.269852
 H         0.489117         0.051055        -1.191603
 H        -0.388317        -1.259420        -0.455208
 H        -0.862505         0.293396        -0.126696
 H         1.608770        -1.085771         2.357852
