19
Iteration:  3474
 C         3.868202         1.669647         2.822922
 C         3.090522         0.966011         1.656903
 O         3.388407        -0.441024         1.397639
 C         2.604057        -0.314248         0.206435
 C         2.655304         1.240954         0.284319
 C         1.616076         1.091265         1.331052
 C         1.099442        -0.271853         0.738687
 C        -0.070412        -0.146193        -0.286680
 O         0.788723        -1.288576         1.761435
 H         4.107162         0.970973         3.672091
 H         4.808181         2.108238         2.348131
 H         3.246357         2.501303         3.246776
 H         2.903049        -1.109823        -0.481668
 H         2.629102         1.993689        -0.583570
 H         1.017799         1.807536         1.839738
 H         0.088786         0.743414        -0.807639
 H        -0.060842        -0.978993        -0.951581
 H        -1.156667        -0.027370         0.082847
 H         1.642024        -1.428260         2.132389
