19
Iteration:  2478charge 0 multiplicity 1
 C         3.884640         1.696508         2.637081
 C         3.110260         0.895824         1.708433
 O         3.468550        -0.381589         1.387088
 C         2.534653        -0.319070         0.218786
 C         2.636957         1.193628         0.312143
 C         1.613550         1.064901         1.531853
 C         1.116044        -0.302022         0.854806
 C         0.101963        -0.106150        -0.269809
 O         0.587090        -1.283625         1.637776
 H         3.994625         1.279054         3.613122
 H         4.825259         1.826450         2.179051
 H         3.310687         2.636762         2.771208
 H         2.860694        -0.962088        -0.642350
 H         2.618769         2.066907        -0.314920
 H         0.885366         1.835222         2.009760
 H         0.250151         0.763738        -0.886190
 H         0.259184        -0.917260        -1.006127
 H        -0.940142        -0.054150         0.104826
 H         1.481605        -1.581785         1.943769
