19
Iteration:  3819
 C         3.825934         1.801479         2.714706
 C         3.064437         0.945539         1.733362
 O         3.392161        -0.493477         1.478884
 C         2.580467        -0.357015         0.186388
 C         2.686057         1.191965         0.289406
 C         1.658775         1.076079         1.365653
 C         1.095595        -0.208709         0.724055
 C        -0.100686        -0.054250        -0.178643
 O         0.821290        -1.405129         1.642160
 H         3.402604         1.795911         3.742600
 H         4.930325         1.551591         2.699922
 H         3.805010         2.890718         2.351236
 H         2.919102        -1.056387        -0.605117
 H         2.923799         1.857591        -0.568045
 H         0.988147         1.918849         1.749429
 H        -0.087283         0.778409        -0.806332
 H        -0.155298        -0.836036        -0.901716
 H        -1.086950        -0.059058         0.380567
 H         1.635888        -1.478864         2.089993
