19
Iteration:  3820charge 0 multiplicity 1
 C         3.828464         1.808392         2.714641
 C         3.070964         0.951170         1.737179
 O         3.392034        -0.489040         1.484066
 C         2.581338        -0.362054         0.176491
 C         2.692825         1.194624         0.293594
 C         1.657903         1.073206         1.359525
 C         1.089068        -0.217853         0.726339
 C        -0.105223        -0.054567        -0.179848
 O         0.811067        -1.413082         1.635492
 H         3.466241         1.868170         3.769421
 H         4.948654         1.546711         2.704672
 H         3.804868         2.904315         2.384049
 H         2.891618        -1.059244        -0.645174
 H         2.946271         1.884432        -0.584690
 H         0.987946         1.889825         1.749848
 H        -0.069839         0.764154        -0.749600
 H        -0.134200        -0.834540        -0.879823
 H        -1.096567        -0.024820         0.379715
 H         1.637945        -1.494617         2.111198
