19
Iteration:  1812charge 0 multiplicity 1
 C         3.957589         1.811377         2.590270
 C         3.116607         0.904849         1.705694
 O         3.459783        -0.475282         1.399216
 C         2.545100        -0.322801         0.281033
 C         2.597611         1.168271         0.322472
 C         1.591173         1.040588         1.483635
 C         1.094363        -0.335024         0.838105
 C         0.114596         0.083247        -0.251667
 O         0.548317        -1.401761         1.631546
 H         3.769166         1.646927         3.691950
 H         5.105110         1.609975         2.394689
 H         3.794260         2.799679         2.171289
 H         2.674771        -1.034370        -0.566683
 H         2.924815         1.915042        -0.349676
 H         1.229911         1.926418         1.996770
 H        -0.047296         1.237543        -0.285270
 H         0.208437        -0.435956        -1.307568
 H        -0.858536        -0.232029         0.119980
 H         1.274106        -1.881584         2.096049
