19
Iteration:   589
 C         3.817929         1.463179         2.810798
 C         3.106097         1.024359         1.603940
 O         3.398817        -0.467561         1.380872
 C         2.496419        -0.366456         0.205307
 C         2.664972         1.264563         0.194497
 C         1.553763         1.146313         1.205837
 C         1.079091        -0.205275         0.783392
 C        -0.048719        -0.143496        -0.113153
 O         0.865395        -1.185926         1.781914
 H         3.569765         0.981380         3.829269
 H         4.900450         1.255747         2.682954
 H         3.733983         2.501327         2.940692
 H         2.886061        -1.117797        -0.564673
 H         3.237554         1.912264        -0.466042
 H         0.980595         1.904805         1.624167
 H        -0.816050         0.637250         0.351247
 H         0.235426         0.309108        -1.199582
 H        -0.420408        -1.145006        -0.239736
 H         1.842720        -1.242204         2.231267
