19
Iteration:  1070charge 0 multiplicity 1
 C         3.796122         1.508603         2.751334
 C         3.035900         0.852644         1.667176
 O         3.244969        -0.553689         1.417344
 C         2.544870        -0.304331         0.078806
 C         2.787822         1.262880         0.228963
 C         1.637900         1.219252         1.352712
 C         1.107853        -0.186988         0.767059
 C        -0.078549        -0.241537        -0.211036
 O         0.927943        -1.052644         1.833216
 H         3.437565         1.149814         3.721720
 H         4.819923         1.366823         2.710382
 H         3.574516         2.596229         2.576669
 H         2.923681        -0.934471        -0.752625
 H         3.347171         1.841625        -0.583594
 H         0.961535         1.917349         1.688760
 H        -0.974813        -0.508498         0.467896
 H        -0.170523         0.714147        -0.687558
 H        -0.082264        -1.015936        -0.876555
 H         1.827769        -1.012820         2.193761
