19
Iteration:  3809charge 0 multiplicity 1
 C         3.771982         1.723871         2.685307
 C         3.078640         0.895373         1.677948
 O         3.379268        -0.508762         1.443811
 C         2.580296        -0.328774         0.260472
 C         2.668070         1.170857         0.254138
 C         1.574042         1.130237         1.398172
 C         1.149483        -0.232173         0.776897
 C        -0.068197        -0.061870        -0.231491
 O         0.885870        -1.295773         1.661005
 H         3.236447         1.497117         3.605067
 H         4.864121         1.418007         2.811288
 H         3.643157         2.801634         2.346099
 H         2.959369        -1.041318        -0.495988
 H         2.847144         2.004142        -0.482418
 H         1.025725         2.044405         1.792350
 H        -0.112426         0.819798        -0.724210
 H        -0.122399        -0.931132        -0.826675
 H        -0.945415        -0.147074         0.481060
 H         1.729615        -1.433489         2.044245
