19
Iteration:  2982
 C         4.023085         1.833743         2.540564
 C         3.058920         0.968073         1.755955
 O         3.525557        -0.410278         1.433105
 C         2.527982        -0.308139         0.244331
 C         2.669106         1.192899         0.368798
 C         1.519212         1.082129         1.492810
 C         1.070984        -0.342092         0.832829
 C         0.045430        -0.003909        -0.251899
 O         0.530568        -1.485639         1.597257
 H         3.910848         1.713958         3.606762
 H         5.003656         1.372247         2.353754
 H         4.219120         2.846192         2.391663
 H         2.776029        -0.924885        -0.613619
 H         2.983561         2.020391        -0.208240
 H         0.987107         1.859460         1.988404
 H         0.235106         0.930168        -0.624669
 H         0.222909        -0.772523        -0.958640
 H        -1.079932        -0.051971        -0.085148
 H         1.273288        -2.002092         1.952630
