19
Iteration:  2009charge 0 multiplicity 1
 C         3.903335         1.610804         2.701339
 C         3.051203         0.869964         1.696133
 O         3.379376        -0.519045         1.394514
 C         2.483151        -0.285371         0.236137
 C         2.631558         1.262858         0.252471
 C         1.599381         1.123987         1.429491
 C         1.119048        -0.167723         0.761360
 C        -0.019419        -0.095430        -0.216457
 O         0.849353        -1.265832         1.694085
 H         3.441818         1.452464         3.654508
 H         5.034751         1.478600         2.602147
 H         3.544104         2.679907         2.587671
 H         2.796771        -0.978701        -0.507774
 H         2.889673         2.001965        -0.445055
 H         0.940046         1.816668         2.033375
 H         0.038937         0.789273        -1.001358
 H        -0.000362        -1.004657        -0.865164
 H        -0.921995        -0.225537         0.376190
 H         1.773407        -1.546922         1.908589
