19
Iteration:  3797charge 0 multiplicity 1
 C         3.706023         1.590852         2.713083
 C         3.063822         0.912375         1.594544
 O         3.374692        -0.496838         1.431185
 C         2.549458        -0.365355         0.174539
 C         2.660884         1.255543         0.273642
 C         1.548887         1.143274         1.322246
 C         1.136317        -0.206236         0.806060
 C         0.048606        -0.156153        -0.174882
 O         0.905369        -1.199323         1.743483
 H         3.279809         1.405381         3.700633
 H         4.828956         1.436072         2.750186
 H         3.631482         2.732910         2.621098
 H         2.651264        -1.042152        -0.679222
 H         3.040257         2.042966        -0.367065
 H         0.928686         1.907322         1.916047
 H         0.185221         0.755781        -0.724640
 H        -0.029473        -0.889894        -0.954646
 H        -0.944359        -0.111125         0.354564
 H         1.797041        -1.457093         2.162186
