19
Iteration:  2717
 C         3.913719         1.796224         2.512849
 C         3.116531         0.891690         1.681631
 O         3.464301        -0.490018         1.466976
 C         2.555076        -0.335280         0.231426
 C         2.605268         1.153316         0.354410
 C         1.507734         0.997104         1.557575
 C         1.129374        -0.198790         0.832399
 C         0.096241        -0.008371        -0.289544
 O         0.646170        -1.311459         1.596295
 H         4.169566         1.298008         3.478883
 H         4.917992         1.843488         2.163222
 H         3.265315         2.690292         2.720981
 H         2.735203        -1.067797        -0.628511
 H         2.858530         1.956774        -0.244860
 H         0.876982         1.591077         2.079935
 H         0.393863         0.764658        -0.960716
 H        -0.115093        -0.993316        -0.781804
 H        -0.784613         0.474510         0.259774
 H         1.241371        -1.554723         2.416702
