19
Iteration:  3996charge 0 multiplicity 1
 C         3.639054         1.639867         2.827584
 C         3.042509         0.918270         1.720878
 O         3.415425        -0.494580         1.331012
 C         2.616706        -0.279966         0.118794
 C         2.742430         1.214578         0.265582
 C         1.583610         1.121075         1.320704
 C         1.121732        -0.216958         0.751845
 C        -0.094886        -0.148222        -0.187002
 O         0.967628        -1.269218         1.750112
 H         3.059658         1.371595         3.688531
 H         4.671395         1.507352         3.157765
 H         3.639456         2.748128         2.724221
 H         2.883281        -0.891557        -0.772571
 H         2.763291         2.002156        -0.421164
 H         0.879273         1.950302         1.588118
 H         0.012682         0.690046        -0.846973
 H        -0.251717        -1.062224        -0.786135
 H        -1.074052        -0.080953         0.446021
 H         1.899629        -1.266952         2.185500
