19
Iteration:   466charge 0 multiplicity 1
 C         3.954618         1.679065         2.582637
 C         3.106688         0.902917         1.671046
 O         3.473904        -0.466121         1.449766
 C         2.511099        -0.409601         0.188355
 C         2.701353         1.243651         0.247470
 C         1.636827         1.119567         1.450062
 C         1.035925        -0.188817         0.888072
 C         0.012380        -0.058100        -0.273024
 O         0.603089        -1.331668         1.734493
 H         3.974647         1.328486         3.510682
 H         5.064007         1.840905         2.330770
 H         3.463018         2.715033         2.547311
 H         2.676892        -1.115387        -0.598733
 H         3.058325         2.028132        -0.389336
 H         0.936832         1.977190         2.011929
 H        -0.931967        -0.535364         0.036373
 H        -0.051494         0.946041        -0.582945
 H         0.203182        -0.778013        -1.129168
 H         1.280658        -1.376666         2.349219
