19
Iteration:  3658charge 0 multiplicity 1
 C         3.927268         1.873525         2.624645
 C         3.154935         0.974280         1.711733
 O         3.387345        -0.452966         1.438902
 C         2.567501        -0.420342         0.265453
 C         2.681126         1.248197         0.331709
 C         1.573470         1.016758         1.432389
 C         1.174703        -0.335391         0.803984
 C         0.007744        -0.040042        -0.260000
 O         0.629702        -1.425290         1.590769
 H         3.682375         1.652999         3.598163
 H         5.010720         1.870810         2.445885
 H         3.552167         2.889963         2.520658
 H         2.954591        -0.987070        -0.586192
 H         2.729705         1.899572        -0.471188
 H         0.945313         1.894486         1.835193
 H         0.180100         0.991236        -0.420971
 H        -0.097809        -0.704847        -1.095343
 H        -1.004939         0.010305         0.393561
 H         1.149871        -1.547075         2.469640
