19
Iteration:  2610
 C         3.639645         1.477601         2.863072
 C         3.013851         0.866365         1.663193
 O         3.475017        -0.536528         1.281950
 C         2.585662        -0.286150         0.073637
 C         2.743025         1.301971         0.260141
 C         1.597157         1.126592         1.314772
 C         1.107012        -0.187366         0.756237
 C        -0.053594        -0.176245        -0.118313
 O         0.920203        -1.066997         1.817486
 H         2.876896         1.175476         3.625772
 H         4.679350         1.286158         3.033910
 H         3.718510         2.586263         2.633791
 H         2.950280        -0.909453        -0.854698
 H         2.734575         2.129945        -0.457689
 H         1.083022         1.886651         1.782994
 H        -0.017889         0.396349        -0.952678
 H        -0.221901        -1.213257        -0.473996
 H        -1.108565        -0.009069         0.409013
 H         1.814713        -1.405295         1.993524
