19
Iteration:   154charge 0 multiplicity 1
 C         3.911092         1.512824         2.673207
 C         3.061077         0.922959         1.637924
 O         3.231848        -0.466797         1.531804
 C         2.532337        -0.366320         0.164499
 C         2.781483         1.120908         0.194326
 C         1.654734         1.224422         1.298205
 C         1.057631        -0.169972         0.788778
 C        -0.158415        -0.179049        -0.148618
 O         0.909616        -1.108251         1.765313
 H         3.620528         0.932730         3.555836
 H         5.040020         1.549140         2.401632
 H         3.681727         2.553909         2.866725
 H         2.849713        -1.072259        -0.542385
 H         3.220387         1.903447        -0.468526
 H         1.138601         2.150057         1.437650
 H         0.256609        -0.490311        -1.158114
 H        -0.782778        -1.026189         0.123523
 H        -0.720873         0.775949        -0.301485
 H         1.764248        -1.125548         2.123075
