19
Iteration:   244
 C         3.941897         1.733387         2.615694
 C         3.091320         0.843448         1.640514
 O         3.438301        -0.500625         1.380729
 C         2.482937        -0.318461         0.191958
 C         2.699840         1.200623         0.284215
 C         1.609821         1.063943         1.435512
 C         1.007307        -0.236270         0.868402
 C         0.046038        -0.032227        -0.249015
 O         0.667025        -1.288374         1.774111
 H         3.773165         1.582095         3.665387
 H         5.114180         1.739476         2.210309
 H         3.502381         2.752306         2.424615
 H         2.754318        -1.110813        -0.579665
 H         3.051102         1.994641        -0.321881
 H         1.096952         1.825492         2.166126
 H        -0.611059        -0.963520        -0.243075
 H        -0.556532         0.951483        -0.302230
 H         0.573754        -0.023931        -1.169106
 H         1.476165        -1.448424         2.313379
