19
Iteration:  2288charge 0 multiplicity 1
 C         4.021884         1.866945         2.473447
 C         3.085902         0.874328         1.777813
 O         3.377269        -0.550914         1.561340
 C         2.645801        -0.344680         0.271757
 C         2.654331         1.203651         0.385919
 C         1.525880         1.097867         1.380829
 C         1.067651        -0.307410         0.772321
 C         0.019973         0.005989        -0.213623
 O         0.603180        -1.378717         1.554565
 H         4.401994         1.427319         3.439375
 H         4.806384         2.106694         1.697539
 H         3.489467         2.621848         2.989212
 H         3.179655        -0.736605        -0.622241
 H         3.116217         1.886420        -0.355718
 H         0.871555         1.790204         1.869632
 H         0.498018         0.882800        -0.792234
 H        -0.393533        -0.800744        -0.875092
 H        -0.858425         0.284766         0.442617
 H         1.350128        -1.626603         2.259735
