19
Iteration:  4726charge 0 multiplicity 1
 C         3.941100         1.916191         2.537880
 C         3.088261         0.870740         1.807162
 O         3.491385        -0.486035         1.464170
 C         2.605766        -0.454502         0.332165
 C         2.759245         1.137134         0.351094
 C         1.538126         1.049547         1.444836
 C         1.081634        -0.236506         0.801322
 C         0.138949        -0.095764        -0.350933
 O         0.421538        -1.263488         1.631043
 H         3.157647         2.453283         3.186383
 H         4.674024         1.490210         3.178660
 H         4.280245         2.708301         1.805560
 H         2.701752        -1.325328        -0.340773
 H         3.032363         2.060338        -0.299836
 H         1.072888         1.895420         1.865857
 H         0.708840         0.557887        -1.171177
 H         0.055021        -1.063585        -0.695220
 H        -0.805911         0.333962        -0.247309
 H         1.087564        -1.632743         2.204683
