19
Iteration:  4251charge 0 multiplicity 1
 C         3.971409         1.688321         2.691511
 C         3.004542         1.011927         1.728997
 O         3.379198        -0.432611         1.442842
 C         2.520129        -0.253411         0.248232
 C         2.572188         1.315109         0.309305
 C         1.453230         1.110321         1.333239
 C         1.174793        -0.337350         0.805322
 C         0.096047        -0.181323        -0.320931
 O         0.794568        -1.403365         1.687710
 H         3.388534         1.934067         3.622123
 H         4.726274         0.968747         3.011569
 H         4.387993         2.594547         2.269902
 H         2.776293        -0.847308        -0.639010
 H         2.639961         2.129638        -0.446261
 H         0.952973         1.924287         1.874275
 H         0.695957         0.626083        -0.986534
 H        -0.134581        -1.149384        -0.867520
 H        -0.800901         0.129137         0.177508
 H         1.490154        -1.446825         2.433295
