19
Iteration:  4200charge 0 multiplicity 1
 C         3.695544         1.530082         2.871343
 C         3.099038         0.878851         1.634584
 O         3.377621        -0.461721         1.298743
 C         2.564368        -0.236850         0.101831
 C         2.686455         1.354087         0.327102
 C         1.504888         1.167314         1.276381
 C         1.136126        -0.184201         0.735417
 C        -0.011288        -0.395069        -0.185250
 O         0.908253        -1.156291         1.779970
 H         3.173709         1.398015         3.821345
 H         4.813689         1.205320         3.046447
 H         3.726163         2.658465         2.794634
 H         2.992558        -0.841532        -0.730318
 H         3.184666         2.234231        -0.149303
 H         0.884549         2.035946         1.717443
 H         0.286167         0.115124        -1.011721
 H        -0.058654        -1.501421        -0.321960
 H        -0.957174         0.044456         0.224520
 H         1.694091        -1.092949         2.289452
