19
Iteration:  3730charge 0 multiplicity 1
 C         3.813849         1.479438         2.772846
 C         3.032802         0.942011         1.737863
 O         3.375015        -0.449603         1.328218
 C         2.591951        -0.225669         0.092227
 C         2.710256         1.309797         0.244167
 C         1.582773         1.237061         1.329954
 C         1.103832        -0.212152         0.776156
 C         0.010335        -0.405471        -0.210385
 O         0.764058        -1.145932         1.784469
 H         4.079743         0.715180         3.582976
 H         4.769050         1.875113         2.389760
 H         3.337975         2.262128         3.490997
 H         2.911671        -0.932825        -0.688065
 H         2.944026         2.121617        -0.386302
 H         1.042678         2.098655         1.735227
 H         0.517104         0.022060        -1.148083
 H        -0.203022        -1.513084        -0.159108
 H        -0.825547         0.196019         0.043330
 H         1.462637        -1.074701         2.501921
