19
Iteration:  2314charge 0 multiplicity 1
 C         3.993163         1.781729         2.521241
 C         3.092239         0.924860         1.698283
 O         3.384519        -0.487226         1.520428
 C         2.506148        -0.442173         0.289828
 C         2.663210         1.237091         0.353388
 C         1.567587         1.081015         1.551322
 C         1.098133        -0.238871         0.777170
 C         0.050608        -0.027460        -0.314421
 O         0.680738        -1.333058         1.583209
 H         4.421767         1.204605         3.293746
 H         4.765517         2.109829         1.862035
 H         3.458835         2.529976         3.156447
 H         2.654239        -1.274002        -0.406038
 H         2.839177         2.043816        -0.402837
 H         0.751430         1.834224         1.768633
 H         0.289286         0.912086        -0.946632
 H         0.004180        -0.867963        -1.009041
 H        -0.834508         0.125197         0.263568
 H         1.365101        -1.558157         2.329868
