19
Iteration:   893
 C         3.836107         1.639840         2.721365
 C         3.104373         0.969999         1.590680
 O         3.438291        -0.511006         1.324409
 C         2.564570        -0.335983         0.229813
 C         2.672019         1.147317         0.206650
 C         1.613408         1.025304         1.353658
 C         1.113377        -0.204382         0.876413
 C         0.067541        -0.062515        -0.192966
 O         0.652070        -1.170928         1.797080
 H         3.510253         1.207287         3.680245
 H         4.894645         1.382862         2.749938
 H         3.553163         2.639422         2.734442
 H         2.724803        -1.082871        -0.668463
 H         2.848787         1.872313        -0.569951
 H         0.940515         1.880057         1.679678
 H        -0.857381         0.172590         0.328716
 H         0.202339         0.897886        -0.765038
 H         0.041242        -0.976320        -0.766416
 H         1.454532        -1.501812         2.309968
