19
Iteration:  4779
 C         3.913591         1.706144         2.625662
 C         3.047680         1.011944         1.712953
 O         3.314035        -0.445003         1.652762
 C         2.536583        -0.415176         0.375697
 C         2.808210         1.082010         0.242294
 C         1.525514         1.210902         1.206569
 C         1.086283        -0.264194         0.744652
 C         0.066970        -0.081950        -0.308176
 O         0.688141        -1.324166         1.694182
 H         3.905138         1.312990         3.713181
 H         4.958819         1.512009         2.224529
 H         3.910223         2.869435         2.486960
 H         2.776851        -1.223892        -0.323432
 H         3.323666         1.933189        -0.311410
 H         0.847556         2.004439         1.344881
 H         0.313248         0.737044        -1.059424
 H        -0.122996        -0.886608        -0.931626
 H        -0.832447         0.388018         0.084808
 H         1.472507        -1.605807         2.121836
