19
Iteration:  1782charge 0 multiplicity 1
 C         3.917698         1.635417         2.685410
 C         3.092247         0.845299         1.729080
 O         3.380942        -0.524614         1.398674
 C         2.598114        -0.279032         0.200194
 C         2.706052         1.224052         0.323406
 C         1.529490         1.025405         1.404220
 C         1.084572        -0.175985         0.772863
 C        -0.048166        -0.113836        -0.235318
 O         0.756476        -1.188407         1.663401
 H         3.794316         1.397032         3.731852
 H         4.979375         1.649552         2.296825
 H         3.731984         2.749473         2.622681
 H         2.720014        -0.933610        -0.619170
 H         2.927666         2.081197        -0.315093
 H         1.144324         1.889766         2.116349
 H        -0.263785         0.830889        -0.857151
 H         0.049396        -0.790223        -0.985275
 H        -0.898588        -0.522629         0.296149
 H         1.470230        -1.148985         2.246044
