19
Iteration:  4120
 C         3.864591         1.776518         2.692942
 C         3.101933         0.929748         1.752974
 O         3.388782        -0.465337         1.446184
 C         2.592906        -0.293350         0.166751
 C         2.635987         1.225192         0.338851
 C         1.573276         1.123141         1.385868
 C         1.097159        -0.263423         0.773595
 C        -0.010395        -0.178008        -0.242853
 O         0.772070        -1.362861         1.627873
 H         4.354447         1.139986         3.555455
 H         4.601810         2.550653         2.390204
 H         3.167094         2.423650         3.262162
 H         2.962759        -0.953133        -0.606756
 H         2.932443         2.026796        -0.299591
 H         0.841049         1.766446         1.751764
 H         0.119588         0.761525        -1.005578
 H        -0.013104        -1.043354        -0.988226
 H        -0.959605        -0.083576         0.225246
 H         1.569008        -1.446975         2.198085
