19
Iteration:   440
 C         3.977251         1.650837         2.688119
 C         3.048451         0.861728         1.752093
 O         3.306359        -0.550098         1.416618
 C         2.517577        -0.334868         0.152671
 C         2.682542         1.201836         0.289410
 C         1.607488         1.137893         1.311677
 C         1.108774        -0.221204         0.770073
 C        -0.036515        -0.145287        -0.191722
 O         0.818536        -1.129239         1.739896
 H         3.698433         1.308715         3.789390
 H         5.045972         1.857411         2.443308
 H         3.520951         2.637236         2.710678
 H         2.814018        -0.965561        -0.734886
 H         2.848751         1.957039        -0.512052
 H         1.033047         1.840102         1.748028
 H        -0.932788        -0.238045         0.453555
 H        -0.092692         0.808632        -0.791760
 H        -0.082837        -1.064147        -0.819515
 H         1.696285        -1.349863         2.028784
