19
Iteration:  4470
 C         3.802458         1.731606         2.760468
 C         3.068556         0.978721         1.637272
 O         3.375914        -0.449207         1.461306
 C         2.562177        -0.427430         0.261113
 C         2.595071         1.174517         0.209999
 C         1.592893         1.090621         1.288721
 C         1.134986        -0.299908         0.824450
 C         0.050576        -0.056941        -0.291395
 O         0.819418        -1.299333         1.730499
 H         4.321757         0.951549         3.377781
 H         4.428875         2.672186         2.613508
 H         3.050290         2.109639         3.492101
 H         3.005756        -1.131451        -0.459510
 H         2.709994         1.986044        -0.517092
 H         1.018085         1.906975         1.597183
 H         0.310386         0.923299        -0.695717
 H         0.048518        -0.784785        -1.177197
 H        -0.906891         0.141375         0.221327
 H         1.622207        -1.364448         2.276432
