19
Iteration:  1375charge 0 multiplicity 1
 C         4.023005         1.781958         2.464774
 C         3.060584         0.853292         1.768156
 O         3.347356        -0.563320         1.497945
 C         2.540727        -0.366327         0.277121
 C         2.657582         1.135338         0.343271
 C         1.610389         1.087417         1.484844
 C         1.141926        -0.214427         0.821811
 C        -0.003485        -0.022248        -0.291631
 O         0.661782        -1.270804         1.628967
 H         4.436133         1.464681         3.424341
 H         4.887482         2.062930         1.898921
 H         3.437211         2.747399         2.692679
 H         2.821524        -0.887486        -0.603480
 H         3.014925         2.025295        -0.243167
 H         0.883769         1.949325         1.932377
 H        -0.921148         0.557702         0.279236
 H         0.314979         0.730266        -1.049666
 H        -0.474700        -0.915079        -0.797426
 H         1.494992        -1.726614         2.107372
