19
Iteration:   874
 C         3.766137         1.526758         2.734659
 C         3.142203         0.872744         1.661826
 O         3.468933        -0.509238         1.359602
 C         2.549368        -0.384083         0.140693
 C         2.699404         1.276612         0.273664
 C         1.691107         1.232173         1.282503
 C         1.090129        -0.202254         0.767042
 C        -0.081580        -0.201776        -0.234800
 O         0.715454        -1.098593         1.897809
 H         3.433258         1.193080         3.791542
 H         4.815302         1.519072         2.561153
 H         3.421941         2.616715         2.575991
 H         2.799201        -1.174235        -0.667458
 H         3.081989         1.948510        -0.440759
 H         1.170608         1.997819         2.049460
 H        -1.113062        -0.196238         0.357136
 H        -0.054328         0.782493        -0.859307
 H         0.075905        -0.923000        -0.948073
 H         1.555468        -1.741186         2.042767
