19
Iteration:  4403charge 0 multiplicity 1
 C         3.790342         1.589855         2.857293
 C         3.040582         0.886155         1.742921
 O         3.367858        -0.427797         1.349784
 C         2.543854        -0.210908         0.146723
 C         2.755258         1.272293         0.299213
 C         1.572710         1.124936         1.332466
 C         1.131614        -0.214253         0.693026
 C        -0.056707        -0.460884        -0.290183
 O         0.872977        -1.049716         1.756394
 H         3.527119         0.887987         3.725750
 H         4.848078         1.514868         2.498056
 H         3.446178         2.616892         3.001868
 H         2.775321        -0.874852        -0.698200
 H         2.933844         2.140359        -0.263725
 H         1.013296         1.947496         1.833265
 H         0.121336        -0.153550        -1.418996
 H        -0.023947        -1.570862        -0.258776
 H        -0.920740        -0.004233         0.072948
 H         1.512516        -0.965065         2.513467
