19
Iteration:  4223charge 0 multiplicity 1
 C         3.832884         1.572420         2.786507
 C         2.971483         0.962858         1.734230
 O         3.427083        -0.449666         1.360762
 C         2.572935        -0.215067         0.195400
 C         2.661800         1.309846         0.308975
 C         1.518566         1.127821         1.409531
 C         1.157714        -0.189362         0.740296
 C        -0.067555        -0.363703        -0.356262
 O         0.863535        -1.204613         1.743756
 H         3.400815         1.784595         3.739536
 H         4.794802         0.971696         2.979704
 H         4.179734         2.625047         2.493755
 H         2.870490        -0.766413        -0.723010
 H         2.779232         2.091614        -0.453908
 H         1.067581         1.977559         2.027753
 H         0.188144        -0.024795        -1.271283
 H         0.004550        -1.432748        -0.316777
 H        -1.092142        -0.018572         0.004500
 H         1.796610        -1.456241         2.108239
