19
Iteration:  2594charge 0 multiplicity 1
 C         3.672676         1.584058         2.811201
 C         3.161873         0.832537         1.665329
 O         3.398026        -0.520447         1.293872
 C         2.572185        -0.267633         0.114669
 C         2.644590         1.247795         0.263878
 C         1.597967         1.133237         1.358174
 C         1.125331        -0.196753         0.787270
 C        -0.056533        -0.135197        -0.157033
 O         0.903373        -1.207903         1.737936
 H         3.180668         1.501810         3.785033
 H         4.755365         1.314799         2.989357
 H         3.498856         2.694343         2.708012
 H         2.741308        -0.879799        -0.741692
 H         3.067988         2.004455        -0.397321
 H         0.978965         1.952292         1.884342
 H         0.190935         0.569868        -1.068919
 H        -0.211900        -1.144281        -0.590012
 H        -0.806113         0.207628         0.465106
 H         1.585372        -1.212953         2.413104
