19
Iteration:  4678
 C         3.779441         1.614373         2.736577
 C         3.064787         0.988023         1.658764
 O         3.362680        -0.415837         1.473820
 C         2.557487        -0.468928         0.253007
 C         2.657003         1.231895         0.193784
 C         1.637648         1.098577         1.329227
 C         1.139530        -0.207239         0.830917
 C         0.181696        -0.194533        -0.358948
 O         0.685157        -1.150453         1.760882
 H         3.569689         2.670615         2.925257
 H         3.521443         0.920631         3.666554
 H         4.896407         1.560144         2.396574
 H         2.923914        -1.204648        -0.475266
 H         2.814274         1.997711        -0.507462
 H         0.977758         1.915935         1.755259
 H         0.368083         0.466179        -1.113952
 H         0.031243        -1.280767        -0.667084
 H        -0.861085         0.058415         0.045873
 H         1.195673        -1.049375         2.585736
