19
Iteration:  2662
 C         3.770467         1.400573         2.817989
 C         3.075075         0.959606         1.659249
 O         3.317225        -0.440748         1.363048
 C         2.531542        -0.328953         0.211149
 C         2.644800         1.290334         0.198157
 C         1.620099         1.206568         1.332791
 C         1.123366        -0.131889         0.769678
 C        -0.009758        -0.296141        -0.193199
 O         0.919041        -1.101364         1.723358
 H         3.526014         0.757384         3.692334
 H         4.809849         1.384082         2.475960
 H         3.642010         2.480264         3.195594
 H         2.810268        -1.057033        -0.607386
 H         3.009454         2.139517        -0.438271
 H         1.128507         1.965205         1.830763
 H         0.007982         0.324216        -1.095642
 H        -0.015461        -1.305235        -0.712159
 H        -0.971854        -0.203655         0.353418
 H         1.621657        -1.265656         2.453818
