19
Iteration:   899
 C         3.857134         1.640325         2.733836
 C         3.130209         1.028444         1.652241
 O         3.418440        -0.509982         1.329393
 C         2.539654        -0.390862         0.217680
 C         2.648941         1.136251         0.210459
 C         1.621713         1.043383         1.372953
 C         1.115160        -0.238207         0.849018
 C         0.088785        -0.014701        -0.169873
 O         0.650057        -1.215375         1.752649
 H         3.458110         1.273039         3.683929
 H         4.958302         1.525533         2.473951
 H         3.703558         2.796080         2.703902
 H         2.645628        -1.052462        -0.553502
 H         2.623995         1.766733        -0.717246
 H         0.940617         1.754777         1.726870
 H        -0.856732         0.263209         0.338426
 H         0.375364         0.748729        -0.873620
 H         0.011646        -0.952977        -0.861574
 H         1.439594        -1.240511         2.456479
