19
Iteration:  4712
 C         3.854011         1.903456         2.653953
 C         3.064246         0.898129         1.771922
 O         3.563801        -0.539350         1.384997
 C         2.576099        -0.411734         0.291337
 C         2.688132         1.132615         0.374131
 C         1.626410         1.101406         1.371111
 C         1.039143        -0.245535         0.873718
 C         0.180462        -0.146367        -0.448773
 O         0.415663        -1.228965         1.737819
 H         3.363400         2.714377         3.223468
 H         4.643633         1.426285         3.384240
 H         4.688131         2.314114         1.921315
 H         2.891802        -1.023116        -0.583906
 H         3.029351         1.900174        -0.317823
 H         0.930628         1.841206         1.760378
 H         0.547865         0.456724        -1.245871
 H        -0.045333        -1.105302        -0.911190
 H        -0.798694         0.323153        -0.107961
 H         1.141910        -1.609352         2.356486
