19
Iteration:   947
 C         4.082063         1.806117         2.511673
 C         3.016546         0.893498         1.839193
 O         3.354113        -0.515391         1.508441
 C         2.531966        -0.357971         0.235089
 C         2.668478         1.184777         0.319154
 C         1.568070         1.100522         1.490673
 C         1.114110        -0.229615         0.799345
 C         0.030858        -0.079506        -0.247287
 O         0.624154        -1.300434         1.568774
 H         4.191226         1.568399         3.576189
 H         4.969647         1.686421         1.868945
 H         3.878721         2.830301         2.455884
 H         2.904706        -1.104804        -0.606104
 H         2.916119         1.987716        -0.318079
 H         1.029243         1.977224         2.000032
 H        -0.565006         0.709364         0.155679
 H         0.402049         0.086958        -1.290994
 H        -0.526173        -1.018326        -0.365803
 H         1.406729        -1.753832         2.007027
