19
Iteration:  4974
 C         3.935447         1.857951         2.608032
 C         3.149559         0.986298         1.627956
 O         3.463090        -0.438718         1.577771
 C         2.540837        -0.456365         0.332896
 C         2.587208         1.098938         0.232976
 C         1.631289         1.040074         1.470024
 C         1.038125        -0.305110         0.888549
 C         0.304741        -0.044725        -0.386108
 O         0.413754        -1.266930         1.620061
 H         3.324455         2.209923         3.383953
 H         4.612523         1.197597         3.099419
 H         4.542110         2.601888         2.068316
 H         2.929903        -1.235721        -0.298284
 H         2.503541         1.779715        -0.571590
 H         1.054799         1.989476         1.635579
 H         0.543746         0.935222        -0.892099
 H         0.278740        -0.784336        -1.234891
 H        -0.698490        -0.344586         0.038331
 H         1.039189        -1.451360         2.407070
