19
Iteration:  3805
 C         3.744860         1.669522         2.663187
 C         3.096698         0.889235         1.640112
 O         3.372138        -0.503712         1.441026
 C         2.584280        -0.343716         0.255510
 C         2.672687         1.194260         0.244946
 C         1.535592         1.151936         1.391226
 C         1.148009        -0.262423         0.815750
 C        -0.042886        -0.096692        -0.229522
 O         0.902718        -1.235901         1.663294
 H         3.296181         1.558128         3.701713
 H         4.749029         1.389714         2.867003
 H         3.570067         2.752936         2.509478
 H         2.815118        -1.009702        -0.565951
 H         2.865094         2.012669        -0.352676
 H         1.008288         2.013401         1.829545
 H        -0.068411         1.035039        -0.682982
 H        -0.036144        -1.056195        -0.846274
 H        -0.858467        -0.077474         0.476770
 H         1.809966        -1.480152         2.101500
