19
Iteration:   990
 C         3.941206         1.673962         2.637432
 C         3.040001         0.896640         1.719383
 O         3.412263        -0.461934         1.423044
 C         2.496329        -0.345441         0.244984
 C         2.624224         1.150158         0.237454
 C         1.617577         1.122048         1.403535
 C         1.069763        -0.252549         0.855236
 C         0.067600        -0.036931        -0.287964
 O         0.720468        -1.277896         1.724107
 H         3.986239         1.179481         3.655192
 H         4.955050         1.563316         2.068989
 H         3.671215         2.688777         2.843846
 H         2.497331        -1.107467        -0.650193
 H         2.988826         1.907529        -0.369635
 H         0.975744         1.999601         1.847407
 H        -0.729059         0.626960        -0.028760
 H         0.574286         0.389272        -1.238796
 H        -0.264217        -1.051577        -0.682346
 H         1.351646        -1.122789         2.568748
