19
Iteration:  1345
 C         3.992379         1.621971         2.668603
 C         3.099166         0.919089         1.666148
 O         3.288476        -0.471439         1.462655
 C         2.495217        -0.368293         0.223315
 C         2.649320         1.179713         0.237569
 C         1.619646         1.184525         1.341189
 C         1.114925        -0.211001         0.839053
 C        -0.050725        -0.095339        -0.242240
 O         0.791146        -1.282337         1.698742
 H         4.059654         0.973650         3.545927
 H         5.035330         1.873254         2.301615
 H         3.545346         2.548820         3.020487
 H         2.803123        -1.013516        -0.644567
 H         3.124813         1.974069        -0.332603
 H         0.981099         2.029569         1.844842
 H        -0.755556         0.693748         0.133019
 H         0.446548         0.194948        -1.099079
 H        -0.668588        -0.913533        -0.424914
 H         1.524870        -1.337970         2.354253
