19
Iteration:    75charge 0 multiplicity 1
 C         4.100540         1.752677         2.554789
 C         3.189869         0.963727         1.588943
 O         3.468921        -0.464906         1.385616
 C         2.472908        -0.487722         0.346383
 C         2.609409         1.069923         0.247875
 C         1.606179         1.142149         1.442063
 C         1.023929        -0.261408         0.899134
 C         0.147425        -0.005914        -0.255333
 O         0.444913        -1.246898         1.751261
 H         3.990500         1.478284         3.677826
 H         5.100114         1.541899         2.291608
 H         3.815988         2.864442         2.479496
 H         2.698507        -1.329124        -0.354428
 H         2.711131         1.737329        -0.586110
 H         1.029601         2.076626         1.484024
 H         0.159085         1.037833        -0.502663
 H         0.298658        -0.585858        -1.126564
 H        -0.903979        -0.377396         0.119948
 H         1.084011        -1.405221         2.530044
