19
Iteration:   413charge 0 multiplicity 1
 C         3.818496         1.484207         2.706949
 C         3.007144         0.929003         1.648900
 O         3.329047        -0.496996         1.376367
 C         2.560343        -0.287639         0.213845
 C         2.766993         1.247357         0.249803
 C         1.616646         1.202084         1.230932
 C         1.088469        -0.225292         0.810128
 C        -0.132399        -0.169410        -0.156506
 O         0.933814        -1.182299         1.797636
 H         3.263168         0.985184         3.574445
 H         4.897481         1.339974         2.558686
 H         3.751530         2.599103         2.912738
 H         2.815677        -0.894594        -0.619151
 H         3.223508         1.916345        -0.437976
 H         1.045607         2.107494         1.786639
 H        -0.975673         0.380500         0.335135
 H         0.080195         0.333111        -1.080264
 H        -0.438218        -1.199692        -0.387031
 H         1.839270        -1.126604         2.208228
