19
Iteration:   385
 C         3.794848         1.512888         2.898030
 C         3.107293         0.974685         1.608708
 O         3.395639        -0.454594         1.258112
 C         2.516001        -0.343028         0.163727
 C         2.635248         1.247530         0.168851
 C         1.684298         1.133129         1.290377
 C         1.154890        -0.205477         0.814732
 C        -0.082867        -0.179841        -0.132807
 O         0.838283        -1.123559         1.804149
 H         3.156625         1.047371         3.708582
 H         4.801772         1.120070         2.837071
 H         3.727917         2.534146         3.192645
 H         2.678235        -1.181970        -0.599506
 H         2.975268         2.084463        -0.475254
 H         1.098083         1.880354         1.548199
 H        -0.823177         0.643651         0.053692
 H         0.044154        -0.277298        -1.274712
 H        -0.396949        -1.186962         0.073543
 H         1.698787        -1.346783         2.279095
