19
Iteration:  1572
 C         3.915819         1.672870         2.655570
 C         3.155147         0.860659         1.688400
 O         3.452462        -0.512946         1.294521
 C         2.508328        -0.319973         0.195130
 C         2.551238         1.246203         0.401769
 C         1.582460         1.075871         1.428795
 C         1.129741        -0.244158         0.880233
 C         0.087449        -0.048810        -0.298725
 O         0.644859        -1.270542         1.764481
 H         3.963043         1.291747         3.693685
 H         4.905555         2.043324         2.240025
 H         3.394521         2.634837         2.743124
 H         2.591888        -1.002055        -0.697102
 H         2.904125         1.961919        -0.364747
 H         0.996227         1.847552         1.754045
 H        -0.431168         1.037967        -0.344761
 H         0.675334        -0.107777        -1.218592
 H        -0.643266        -0.845889        -0.376263
 H         1.337243        -1.509885         2.302759
