19
Iteration:   772charge 0 multiplicity 1
 C         3.818365         1.754228         2.589151
 C         3.143552         0.852321         1.609855
 O         3.467629        -0.500972         1.366567
 C         2.555176        -0.395386         0.192196
 C         2.657736         1.228323         0.344790
 C         1.609389         1.040450         1.524379
 C         1.140511        -0.256265         0.891512
 C         0.083438         0.003653        -0.260719
 O         0.589839        -1.269865         1.706263
 H         3.720283         1.329805         3.590488
 H         4.946848         1.712188         2.343425
 H         3.446491         2.751326         2.502433
 H         2.787267        -1.062536        -0.738667
 H         2.817646         2.130633        -0.270157
 H         0.998043         1.783845         1.869890
 H        -0.743643         0.640229        -0.068718
 H         0.690401         0.419089        -1.084336
 H        -0.380157        -1.035649        -0.529781
 H         1.113678        -1.335268         2.613170
