19
Iteration:   284charge 0 multiplicity 1
 C         4.122956         1.716131         2.536126
 C         3.051177         1.007205         1.759775
 O         3.336294        -0.396104         1.524897
 C         2.506455        -0.364639         0.306741
 C         2.640123         1.187236         0.237348
 C         1.580716         1.066594         1.361435
 C         1.089900        -0.286274         0.824039
 C         0.021730        -0.005452        -0.140796
 O         0.649744        -1.407860         1.575385
 H         4.500662         1.191682         3.431299
 H         5.048056         1.612865         2.040042
 H         3.738870         2.653941         2.846152
 H         2.853224        -0.990314        -0.480812
 H         2.895234         1.875205        -0.550461
 H         0.795541         1.826687         1.793686
 H        -0.927191        -0.546202         0.183742
 H        -0.031297         1.071903        -0.426709
 H         0.210041        -0.476931        -1.139535
 H         1.389268        -1.473201         2.171966
