19
Iteration:    50charge 0 multiplicity 1
 C         4.123255         1.723527         2.422002
 C         3.131921         0.911136         1.648164
 O         3.362156        -0.517970         1.604671
 C         2.536511        -0.422158         0.314809
 C         2.654253         1.150670         0.241290
 C         1.621515         1.114746         1.408772
 C         1.018059        -0.223856         0.866818
 C         0.015849        -0.032045        -0.258567
 O         0.544487        -1.197946         1.721123
 H         4.236746         1.525946         3.524892
 H         5.112096         1.461420         1.948172
 H         3.860088         2.815294         2.291273
 H         2.879493        -1.253483        -0.385403
 H         2.874585         1.872184        -0.561652
 H         1.090209         1.965771         1.989612
 H        -0.337391         1.025235        -0.377740
 H         0.454893        -0.352865        -1.279734
 H        -0.848073        -0.814807        -0.094321
 H         1.357778        -1.719582         2.110946
