19
Iteration:  2647
 C         3.769338         1.380176         2.911018
 C         3.042223         0.957265         1.630814
 O         3.389122        -0.460988         1.349682
 C         2.564994        -0.241542         0.086706
 C         2.753886         1.288476         0.198503
 C         1.573895         1.238503         1.216082
 C         1.090115        -0.174001         0.798357
 C        -0.081728        -0.326380        -0.162333
 O         0.911620        -1.118629         1.816961
 H         3.308274         0.786463         3.712540
 H         4.805766         0.989683         3.042836
 H         3.568244         2.409900         3.151263
 H         2.747643        -0.951487        -0.678736
 H         2.749378         2.071433        -0.588067
 H         1.011443         2.189899         1.593461
 H         0.045498         0.591928        -0.951467
 H         0.028298        -1.345519        -0.525974
 H        -1.016519        -0.167271         0.329102
 H         1.807775        -1.027535         2.180063
