19
Iteration:  4818
 C         3.786170         1.646236         2.836507
 C         3.096491         0.881142         1.652554
 O         3.341706        -0.560918         1.473145
 C         2.522511        -0.403132         0.170768
 C         2.897915         1.191563         0.217245
 C         1.598103         1.170120         1.247697
 C         1.130378        -0.155440         0.703376
 C         0.038334        -0.346051        -0.344013
 O         0.677984        -0.967009         1.859795
 H         3.967220         1.057349         3.664632
 H         4.687243         2.174567         2.520775
 H         3.042161         2.317581         3.179451
 H         2.582959        -1.208171        -0.587715
 H         3.356112         1.988830        -0.416864
 H         0.976451         2.036858         1.536931
 H         0.131173         0.332550        -1.128887
 H         0.086182        -1.500791        -0.643081
 H        -0.925587        -0.127643         0.260486
 H         1.356952        -0.699012         2.563399
