19
Iteration:  1033charge 0 multiplicity 1
 C         3.771896         1.532804         2.806894
 C         3.089122         0.932138         1.625186
 O         3.485590        -0.461915         1.319072
 C         2.547772        -0.353458         0.142362
 C         2.742185         1.203862         0.177628
 C         1.700385         1.134975         1.325145
 C         1.092136        -0.181677         0.829533
 C        -0.098342        -0.202425        -0.198232
 O         0.693965        -1.085969         1.854498
 H         3.441251         1.080108         3.817166
 H         4.974249         1.466185         2.748499
 H         3.439145         2.554863         2.924434
 H         3.031858        -1.095780        -0.612115
 H         3.200929         1.772961        -0.560999
 H         1.087090         2.071143         1.664478
 H        -1.066359        -0.192026         0.269266
 H        -0.205596         0.768527        -0.826748
 H         0.070520        -1.151698        -0.894733
 H         1.428294        -1.559869         2.275848
