19
Iteration:   984
 C         3.977385         1.695413         2.578668
 C         3.017366         0.908068         1.734045
 O         3.414910        -0.499463         1.476300
 C         2.486685        -0.321599         0.203350
 C         2.672634         1.155745         0.300766
 C         1.571788         1.114869         1.411865
 C         1.029568        -0.209807         0.852255
 C         0.086706        -0.078880        -0.333765
 O         0.719279        -1.307206         1.716856
 H         4.164697         1.252422         3.542166
 H         4.902758         1.603369         2.112478
 H         3.643369         2.754692         2.753533
 H         2.611951        -1.015591        -0.583610
 H         2.923105         1.927901        -0.501157
 H         1.142740         1.836688         2.055774
 H        -0.639144         0.756079        -0.019940
 H         0.499763         0.459813        -1.144802
 H        -0.482334        -0.971499        -0.600951
 H         1.390628        -1.136185         2.419935
