19
Iteration:  4711charge 0 multiplicity 1
 C         3.851986         1.898011         2.655063
 C         3.069225         0.905879         1.766986
 O         3.563621        -0.543919         1.387916
 C         2.574893        -0.410307         0.288040
 C         2.678347         1.141072         0.373684
 C         1.628365         1.097156         1.369275
 C         1.038029        -0.251002         0.873406
 C         0.187885        -0.147423        -0.450561
 O         0.420431        -1.222056         1.741958
 H         3.367686         2.699128         3.206813
 H         4.615675         1.403727         3.403666
 H         4.686867         2.301277         1.958736
 H         2.902084        -0.981952        -0.600382
 H         3.023853         1.853717        -0.327756
 H         0.931879         1.868021         1.762626
 H         0.508121         0.447732        -1.228778
 H        -0.058534        -1.137217        -0.937861
 H        -0.798613         0.336463        -0.107292
 H         1.138163        -1.606646         2.374452
