19
Iteration:   817charge 0 multiplicity 1
 C         3.894775         1.458040         2.728967
 C         3.043220         1.004729         1.653177
 O         3.375412        -0.431154         1.444656
 C         2.549419        -0.306484         0.216797
 C         2.741268         1.199942         0.247976
 C         1.593474         1.188522         1.228351
 C         1.029541        -0.180747         0.776486
 C        -0.066030        -0.188898        -0.213571
 O         0.808827        -1.174070         1.802201
 H         3.604319         0.745080         3.571418
 H         4.988720         1.321821         2.531547
 H         3.646340         2.446703         3.040180
 H         2.922181        -1.141436        -0.538999
 H         3.082358         2.051024        -0.382823
 H         1.010691         2.012070         1.617355
 H        -1.040856         0.047111         0.260111
 H         0.131889         0.500763        -1.098474
 H        -0.161552        -1.258015        -0.436297
 H         1.851812        -1.398027         1.915878
