19
Iteration:  1547charge 0 multiplicity 1
 C         3.792691         1.560071         2.741094
 C         3.054766         0.915131         1.628057
 O         3.476085        -0.461403         1.352935
 C         2.560434        -0.383857         0.151971
 C         2.668548         1.221080         0.216414
 C         1.629613         1.028554         1.370404
 C         1.137971        -0.210919         0.785151
 C        -0.036368        -0.005841        -0.209895
 O         0.739287        -1.194644         1.827676
 H         3.839052         0.859621         3.643707
 H         4.810704         1.776274         2.417266
 H         3.345840         2.577451         3.183543
 H         2.800408        -1.010107        -0.664343
 H         2.738340         1.878558        -0.596035
 H         1.042484         1.731273         2.103232
 H        -0.725425         0.755035         0.006923
 H         0.447639         0.301281        -1.282179
 H        -0.417599        -1.104462        -0.344979
 H         1.398234        -1.024746         2.527919
