19
Iteration:    99charge 0 multiplicity 1
 C         3.911824         1.703377         2.522030
 C         3.154377         0.883687         1.563730
 O         3.474082        -0.513809         1.407000
 C         2.549172        -0.419582         0.287228
 C         2.641592         1.140019         0.222697
 C         1.691044         1.083127         1.457102
 C         1.115469        -0.209172         0.873794
 C         0.073179        -0.034686        -0.286071
 O         0.507025        -1.158730         1.849850
 H         3.742838         1.285019         3.539101
 H         4.986747         1.512840         2.335468
 H         3.535152         2.707037         2.533871
 H         2.760040        -1.030829        -0.527130
 H         2.587423         1.857781        -0.605148
 H         1.145339         1.721847         2.028616
 H         0.429940         0.681489        -1.031382
 H        -0.164184        -0.948932        -0.756906
 H        -0.887146         0.193543         0.134492
 H         0.941699        -1.246538         2.642562
