19
Iteration:  4869charge 0 multiplicity 1
 C         3.684385         1.505657         2.911329
 C         3.138157         0.991680         1.602305
 O         3.329792        -0.423324         1.403599
 C         2.573201        -0.446583         0.300270
 C         2.752316         1.131868         0.093427
 C         1.656409         1.166123         1.138379
 C         1.178494        -0.241545         0.729065
 C         0.062717        -0.311646        -0.321002
 O         0.671058        -0.890883         1.946408
 H         3.975136         0.480467         3.467492
 H         4.632236         2.065783         2.751524
 H         3.007724         2.029081         3.610408
 H         2.795831        -1.155451        -0.493344
 H         3.119202         1.797970        -0.643319
 H         1.145502         1.983355         1.765241
 H         0.538155         0.147828        -1.268159
 H        -0.099184        -1.302571        -0.447558
 H        -0.694697         0.356204        -0.106280
 H         1.428637        -1.172235         2.403978
