19
Iteration:  4594charge 0 multiplicity 1
 C         3.712718         1.656431         2.800171
 C         3.117608         0.902433         1.667319
 O         3.456804        -0.497347         1.367718
 C         2.580090        -0.376091         0.218118
 C         2.781308         1.286144         0.258050
 C         1.619339         1.150913         1.258244
 C         1.105725        -0.241548         0.796889
 C        -0.011704        -0.252093        -0.345453
 O         0.713199        -1.179489         1.838467
 H         4.545501         2.258485         2.562865
 H         3.012455         2.307284         3.300813
 H         3.940526         0.957876         3.648726
 H         2.755200        -1.125419        -0.580540
 H         2.912939         2.142817        -0.342358
 H         0.961658         1.971315         1.673544
 H         0.245262         0.592580        -1.093837
 H        -0.225884        -1.154789        -0.878381
 H        -0.871361         0.249248         0.226859
 H         1.562592        -1.152702         2.427231
