19
Iteration:   656charge 0 multiplicity 1
 C         3.792012         1.540860         2.756020
 C         3.050029         0.836706         1.656636
 O         3.399742        -0.557524         1.299983
 C         2.547833        -0.292292         0.142135
 C         2.720852         1.254882         0.264327
 C         1.604485         1.182104         1.340241
 C         1.079593        -0.184866         0.778161
 C        -0.032332        -0.218210        -0.177431
 O         0.825841        -1.074239         1.847246
 H         3.733604         1.067958         3.814730
 H         4.854404         1.507154         2.525949
 H         3.457876         2.569218         2.757492
 H         2.764244        -0.892474        -0.771181
 H         3.084278         2.106502        -0.304228
 H         1.127665         2.029097         1.730824
 H        -1.078641        -0.197741         0.368798
 H        -0.052784         0.591113        -1.039177
 H         0.017299        -1.230814        -0.658048
 H         1.748062        -1.135299         2.183499
