19
Iteration:  3761
 C         3.822942         1.472360         2.910091
 C         3.131997         0.979031         1.632545
 O         3.464524        -0.429779         1.322344
 C         2.561404        -0.292221         0.110718
 C         2.629224         1.301057         0.275158
 C         1.537604         1.154409         1.271149
 C         1.080367        -0.197394         0.775668
 C        -0.060044        -0.406877        -0.273474
 O         0.806248        -1.059880         1.868068
 H         3.675604         0.632492         3.670332
 H         4.891395         1.485990         2.725620
 H         3.312837         2.432890         3.151952
 H         2.852894        -0.962683        -0.706521
 H         2.842379         2.061717        -0.470668
 H         1.028926         1.947624         1.763530
 H         0.344392         0.408850        -1.113759
 H        -0.078429        -1.546283        -0.606995
 H        -0.964197         0.109156        -0.003764
 H         1.735692        -1.114034         2.207420
