19
Iteration:  2447
 C         3.801248         1.594977         2.857217
 C         3.086530         0.968035         1.700302
 O         3.420914        -0.422683         1.353387
 C         2.573967        -0.347954         0.154407
 C         2.723485         1.236184         0.209715
 C         1.536675         1.093495         1.290496
 C         1.127277        -0.274112         0.753982
 C        -0.067717        -0.079226        -0.186699
 O         0.829518        -1.278652         1.730181
 H         3.384006         1.269449         3.825497
 H         4.840720         1.415175         2.820245
 H         3.747497         2.673889         2.783652
 H         2.926284        -1.128810        -0.610798
 H         2.954411         2.133837        -0.410959
 H         0.769954         1.775808         1.784492
 H         0.179287         0.629182        -0.895971
 H        -0.382264        -1.048192        -0.617742
 H        -1.012283         0.160207         0.446392
 H         1.627637        -1.222029         2.264046
