19
Iteration:  2631charge 0 multiplicity 1
 C         3.670279         1.406518         2.979212
 C         3.111453         0.924105         1.617693
 O         3.367464        -0.425334         1.244788
 C         2.562998        -0.242569         0.124143
 C         2.717315         1.298819         0.217970
 C         1.610413         1.192445         1.181979
 C         1.169372        -0.196281         0.749460
 C        -0.116909        -0.276422        -0.195335
 O         0.915207        -1.112075         1.931572
 H         3.132029         0.940391         3.852762
 H         4.719732         1.127289         2.916393
 H         3.838034         2.509724         2.911381
 H         2.911033        -0.822038        -0.807071
 H         3.436320         1.922764        -0.292689
 H         0.972666         1.843011         1.648347
 H        -0.139021         0.423001        -0.937287
 H        -0.348478        -1.263697        -0.635423
 H        -1.082052        -0.076408         0.432947
 H         1.757032        -1.537259         2.069379
