19
Iteration:  2053
 C         4.177849         1.774847         2.542388
 C         3.085206         0.938589         1.780281
 O         3.422642        -0.366468         1.483746
 C         2.562771        -0.344951         0.252853
 C         2.508543         1.268180         0.392406
 C         1.499151         1.038510         1.451170
 C         1.109878        -0.333351         0.874576
 C         0.126444        -0.035180        -0.303739
 O         0.528074        -1.443268         1.552545
 H         4.410785         1.414010         3.523171
 H         5.070861         1.688440         1.825037
 H         3.845909         2.867919         2.661584
 H         2.825073        -0.990723        -0.539337
 H         2.629764         2.054938        -0.287575
 H         0.853971         1.565171         2.131825
 H         0.532942         0.756309        -1.090353
 H        -0.238745        -0.885995        -0.870473
 H        -0.815114         0.350123         0.092324
 H         1.240984        -1.814257         2.184583
