19
Iteration:    36
 C         4.110705         1.701859         2.356764
 C         3.164649         0.864565         1.646201
 O         3.258934        -0.535226         1.570073
 C         2.495976        -0.417986         0.352007
 C         2.714396         1.144369         0.370086
 C         1.548515         1.166549         1.402471
 C         1.115094        -0.217623         0.791789
 C        -0.027539        -0.062943        -0.286991
 O         0.645243        -1.207909         1.763580
 H         4.022042         1.466277         3.360702
 H         5.224922         1.674462         1.988841
 H         3.793687         2.686114         2.259039
 H         2.775649        -1.062174        -0.418274
 H         3.268365         1.848763        -0.264611
 H         0.936691         1.987011         1.550018
 H        -0.522335         0.949922        -0.076636
 H         0.333997        -0.069624        -1.413287
 H        -0.750151        -0.772878        -0.108917
 H         1.393192        -1.235567         2.295058
