19
Iteration:   861charge 0 multiplicity 1
 C         3.808946         1.562016         2.803092
 C         3.104995         0.829276         1.663998
 O         3.379089        -0.558059         1.320559
 C         2.537764        -0.302235         0.202272
 C         2.827142         1.256234         0.245308
 C         1.616186         1.146865         1.275505
 C         1.071181        -0.127730         0.784775
 C        -0.122120        -0.261918        -0.247998
 O         0.814521        -1.033395         1.856204
 H         3.561644         1.142258         3.818958
 H         4.892527         1.567936         2.672423
 H         3.535779         2.611016         2.820483
 H         2.724883        -1.024605        -0.699622
 H         3.070650         2.032231        -0.484105
 H         1.101830         2.028732         1.767613
 H        -1.046125        -0.508348         0.322513
 H        -0.286932         0.667033        -0.885883
 H        -0.054091        -1.128083        -0.866568
 H         1.690761        -1.414609         2.068916
