19
Iteration:  3440
 C         3.960163         1.742955         2.545597
 C         3.055166         0.953870         1.792752
 O         3.400098        -0.455166         1.414088
 C         2.595372        -0.290866         0.279900
 C         2.610523         1.270493         0.365573
 C         1.493689         1.070287         1.486482
 C         1.172389        -0.263983         0.841831
 C         0.128878        -0.139584        -0.268156
 O         0.609705        -1.371161         1.545874
 H         4.463465         1.137864         3.324764
 H         4.747450         2.136290         1.834702
 H         3.482319         2.659725         3.017057
 H         2.877790        -1.030983        -0.520026
 H         2.889981         2.161690        -0.341921
 H         0.907026         1.737418         2.077153
 H         0.488580         0.369616        -1.049093
 H         0.042199        -1.119038        -0.666584
 H        -0.934527         0.209003         0.119234
 H         1.093676        -1.427556         2.403084
