19
Iteration:  1946
 C         3.670058         1.328309         2.917350
 C         3.062123         0.958338         1.608587
 O         3.468664        -0.440087         1.310978
 C         2.575784        -0.315579         0.087203
 C         2.672448         1.281147         0.122703
 C         1.631952         1.184918         1.230404
 C         1.084197        -0.194705         0.764504
 C        -0.083718        -0.196936        -0.072840
 O         0.922529        -1.065085         1.845556
 H         3.103452         0.586185         3.524068
 H         4.781561         1.261116         3.049438
 H         3.368880         2.358818         3.380451
 H         2.808777        -0.986161        -0.696202
 H         2.943224         2.061707        -0.538683
 H         1.083377         1.984473         1.727153
 H         0.239262         0.228153        -1.114228
 H        -0.315058        -1.248295        -0.276192
 H        -1.020296         0.240747         0.529283
 H         1.817023        -1.203335         2.093438
