19
Iteration:  2486charge 0 multiplicity 1
 C         3.960289         1.745645         2.612549
 C         3.052751         0.910637         1.693141
 O         3.463939        -0.413546         1.389434
 C         2.510697        -0.363364         0.240150
 C         2.642309         1.226392         0.341672
 C         1.597135         0.992415         1.580144
 C         1.075461        -0.200371         0.853408
 C         0.143899        -0.099235        -0.326457
 O         0.603843        -1.321151         1.616788
 H         4.169315         1.288266         3.587830
 H         4.940688         2.162086         2.187248
 H         3.268623         2.671345         2.694788
 H         2.644553        -1.035618        -0.576817
 H         2.639456         2.048258        -0.285570
 H         0.967513         1.753247         2.127434
 H         0.214897         0.919779        -0.913103
 H         0.313541        -1.005591        -0.945269
 H        -0.854897        -0.152065        -0.018048
 H         1.234789        -1.708505         2.193906
