19
Iteration:  4019
 C         3.729640         1.763386         2.811430
 C         3.085090         0.890312         1.685881
 O         3.480786        -0.437356         1.306353
 C         2.576638        -0.314464         0.171890
 C         2.648952         1.347563         0.280817
 C         1.583155         1.048761         1.374194
 C         1.145226        -0.299062         0.768289
 C         0.032289        -0.198074        -0.181583
 O         0.732019        -1.316299         1.688365
 H         3.329824         1.635186         3.864720
 H         4.788660         1.475055         3.049551
 H         4.000487         2.847346         2.622269
 H         2.881737        -0.772906        -0.781311
 H         2.946823         2.197910        -0.343982
 H         0.971761         1.731636         2.082955
 H         0.310881         0.567361        -0.984292
 H        -0.325534        -1.103373        -0.699135
 H        -0.948751         0.081749         0.302887
 H         1.443978        -1.731264         2.118568
