19
Iteration:  2975
 C         4.064390         1.793941         2.555622
 C         3.058325         1.006759         1.743191
 O         3.451695        -0.395928         1.429466
 C         2.551790        -0.313483         0.270003
 C         2.635096         1.182803         0.365449
 C         1.507583         1.029630         1.481166
 C         1.096162        -0.304211         0.846848
 C         0.086734        -0.034188        -0.233081
 O         0.536067        -1.467683         1.552628
 H         4.012847         1.868230         3.664091
 H         5.029766         1.259048         2.302350
 H         4.025373         2.940407         2.226687
 H         2.967466        -0.929491        -0.577146
 H         2.890180         2.084798        -0.320255
 H         1.047821         1.760805         2.131775
 H         0.138490         1.115729        -0.713165
 H         0.221238        -0.833347        -1.019956
 H        -0.829827        -0.086443         0.258296
 H         1.096331        -1.969311         2.070520
