19
Iteration:   106charge 0 multiplicity 1
 C         3.900298         1.693066         2.560594
 C         3.119444         0.887282         1.603539
 O         3.450200        -0.537266         1.363802
 C         2.551782        -0.396721         0.237446
 C         2.679031         1.109453         0.234228
 C         1.674601         1.070134         1.485193
 C         1.114979        -0.212778         0.864846
 C         0.081176        -0.070431        -0.274209
 O         0.531371        -1.121247         1.843458
 H         3.746398         1.336814         3.642090
 H         4.922471         1.674694         2.246210
 H         3.574069         2.806986         2.525898
 H         2.840260        -1.127894        -0.584099
 H         2.644126         1.810229        -0.569017
 H         1.099419         1.981561         1.862371
 H         0.381462         0.551873        -1.123699
 H        -0.270327        -1.078018        -0.626107
 H        -0.855014         0.477219         0.299010
 H         1.170493        -1.127296         2.560474
