19
Iteration:  2828
 C         3.806327         1.475763         2.797719
 C         3.063098         0.928628         1.673414
 O         3.388691        -0.510489         1.314727
 C         2.499873        -0.312262         0.185930
 C         2.716093         1.307628         0.287531
 C         1.607719         1.159409         1.327972
 C         1.077404        -0.153708         0.753935
 C        -0.074596        -0.214317        -0.335023
 O         0.924479        -1.123744         1.901646
 H         3.524920         0.991797         3.777506
 H         4.914422         1.466253         2.678317
 H         3.482697         2.513574         2.952953
 H         2.677427        -1.080968        -0.609142
 H         2.810730         2.165368        -0.472687
 H         0.897313         2.017005         1.713890
 H         0.032472         0.366618        -1.184090
 H        -0.022723        -1.251783        -0.724146
 H        -1.119374        -0.155467         0.235425
 H         1.860881        -1.435924         1.960665
