19
Iteration:  2809charge 0 multiplicity 1
 C         3.907875         1.643172         2.764525
 C         3.090839         0.856030         1.700783
 O         3.341127        -0.539725         1.348581
 C         2.525048        -0.222661         0.133226
 C         2.627513         1.210719         0.298728
 C         1.511529         1.185625         1.310344
 C         1.042466        -0.225656         0.839195
 C         0.011721        -0.222667        -0.249540
 O         0.856938        -1.217928         1.766148
 H         3.738177         1.404388         3.813867
 H         4.987917         1.356990         2.671406
 H         3.752998         2.701069         2.730847
 H         2.848699        -0.810227        -0.693988
 H         3.169870         1.942394        -0.305643
 H         1.089963         2.046930         1.956439
 H         0.343220         0.651767        -0.859978
 H        -0.003681        -0.993567        -0.979175
 H        -0.972834         0.071702         0.035782
 H         1.680442        -1.214125         2.312072
