19
Iteration:  1337charge 0 multiplicity 1
 C         3.952021         1.519813         2.724885
 C         3.079278         0.978366         1.658561
 O         3.374846        -0.481502         1.424867
 C         2.548791        -0.289848         0.248757
 C         2.663186         1.199334         0.179672
 C         1.610600         1.224748         1.325994
 C         1.056934        -0.237540         0.837652
 C        -0.060807        -0.107306        -0.234653
 O         0.780897        -1.257580         1.767246
 H         3.899806         0.892048         3.630254
 H         4.995345         1.666159         2.294842
 H         3.412531         2.406019         2.921209
 H         2.591212        -1.079215        -0.573815
 H         3.107436         1.864961        -0.508104
 H         0.973414         1.969119         1.557553
 H        -0.576684         0.709224         0.098203
 H         0.258032         0.261980        -1.276545
 H        -0.578478        -1.086766        -0.337378
 H         1.638985        -1.491778         2.319035
