19
Iteration:  2782charge 0 multiplicity 1
 C         3.941787         1.687434         2.573849
 C         3.067140         0.909697         1.700164
 O         3.430898        -0.420369         1.486083
 C         2.610545        -0.379801         0.257387
 C         2.586510         1.224694         0.310267
 C         1.585994         1.084345         1.505262
 C         1.166537        -0.250559         0.846743
 C        -0.001476        -0.038579        -0.283731
 O         0.657822        -1.326025         1.587347
 H         3.833164         1.710566         3.687455
 H         4.930835         1.304102         2.351993
 H         3.877541         2.774525         2.265896
 H         3.042328        -0.992035        -0.584902
 H         2.584056         2.083029        -0.328014
 H         1.081512         1.805029         2.060288
 H         0.016145         0.666372        -1.103692
 H        -0.234560        -0.992763        -0.847842
 H        -0.959108         0.197379         0.333816
 H         1.338122        -1.728557         2.159459
