19
Iteration:  1371
 C         4.021441         1.763319         2.486807
 C         3.064524         0.887118         1.773048
 O         3.321507        -0.584863         1.505444
 C         2.539179        -0.344953         0.281394
 C         2.682719         1.149584         0.313504
 C         1.603653         1.071348         1.487531
 C         1.145260        -0.187912         0.819132
 C        -0.017342        -0.010317        -0.282487
 O         0.686387        -1.278146         1.633635
 H         4.424718         1.408333         3.454105
 H         4.845371         2.103257         1.846462
 H         3.455423         2.684263         2.685596
 H         2.730566        -0.933162        -0.622945
 H         2.850413         2.026388        -0.299381
 H         0.977578         1.783402         1.793422
 H        -0.800405         0.400232         0.228814
 H         0.395109         0.606373        -1.143189
 H        -0.530932        -0.929050        -0.666737
 H         1.463323        -1.555171         2.045791
