19
Iteration:  2040
 C         4.129696         1.713267         2.539780
 C         3.001116         0.996675         1.804056
 O         3.354531        -0.422212         1.417377
 C         2.537702        -0.279432         0.285132
 C         2.615162         1.246712         0.331672
 C         1.512399         1.049438         1.498018
 C         1.111924        -0.321933         0.799581
 C         0.081500        -0.006900        -0.306477
 O         0.647011        -1.485826         1.633185
 H         4.180147         1.357101         3.551969
 H         5.176470         1.588295         2.104014
 H         3.949277         2.775220         2.578458
 H         2.986252        -0.889525        -0.538745
 H         2.689555         2.057939        -0.333581
 H         0.705627         1.888820         1.712557
 H         0.431956         0.881095        -0.911166
 H        -0.017393        -0.903251        -0.930129
 H        -0.770862         0.257304         0.174552
 H         1.175995        -1.533201         2.451185
