19
Iteration:  2725charge 0 multiplicity 1
 C         3.884290         1.785147         2.491422
 C         3.114028         0.913046         1.621542
 O         3.466818        -0.496675         1.499759
 C         2.526961        -0.357831         0.286798
 C         2.598292         1.179675         0.350910
 C         1.566614         0.981021         1.594215
 C         1.123363        -0.283971         0.888891
 C         0.110211         0.052929        -0.229878
 O         0.629830        -1.336569         1.508637
 H         3.994108         1.299226         3.459614
 H         4.853692         1.996484         1.987081
 H         3.479326         2.829551         2.537039
 H         2.939768        -0.801890        -0.601514
 H         2.756651         1.948295        -0.406334
 H         0.973237         1.744773         2.060205
 H         0.623816         0.815583        -0.983675
 H        -0.062085        -0.970189        -0.676108
 H        -0.845735         0.378548         0.112184
 H         1.067968        -1.424819         2.418647
