19
Iteration:  2677charge 0 multiplicity 1
 C         3.913681         1.538761         2.769238
 C         3.058491         0.908940         1.651160
 O         3.348796        -0.469983         1.404233
 C         2.545530        -0.248904         0.143532
 C         2.694908         1.279619         0.283271
 C         1.540681         1.178636         1.342079
 C         1.109328        -0.192893         0.791294
 C         0.012416        -0.235325        -0.271655
 O         0.791822        -1.216876         1.786125
 H         3.743296         0.816757         3.600487
 H         4.988115         1.755227         2.583415
 H         3.494727         2.494073         3.019573
 H         2.738275        -0.983287        -0.669534
 H         3.056772         1.982355        -0.432201
 H         0.851617         1.936839         1.839115
 H         0.156260         0.540852        -1.031512
 H        -0.054343        -1.249978        -0.669928
 H        -1.006883        -0.054853         0.224006
 H         1.695555        -1.255317         2.070385
