19
Iteration:   522
 C         3.980663         1.749632         2.508398
 C         3.135116         0.914873         1.727906
 O         3.457150        -0.459393         1.417177
 C         2.540892        -0.387402         0.323649
 C         2.638325         1.199391         0.354149
 C         1.605029         1.045492         1.468106
 C         1.005276        -0.272004         0.892410
 C         0.112778        -0.040963        -0.284851
 O         0.553737        -1.319614         1.645240
 H         4.193660         1.626277         3.543878
 H         4.952167         1.551416         1.930496
 H         3.681193         2.801410         2.322824
 H         2.698582        -0.969202        -0.605359
 H         2.778040         1.808695        -0.556204
 H         1.002351         1.972117         1.944212
 H        -0.946264        -0.089368         0.128594
 H         0.057671         1.064168        -0.542198
 H         0.373565        -0.527052        -1.253102
 H         1.227175        -1.556964         2.304939
