19
Iteration:  2703charge 0 multiplicity 1
 C         3.967517         1.739907         2.653422
 C         3.028522         0.865280         1.774593
 O         3.435653        -0.500311         1.357037
 C         2.564725        -0.361720         0.232459
 C         2.619832         1.263748         0.365577
 C         1.589509         1.073490         1.436442
 C         1.101933        -0.294769         0.773664
 C         0.032368        -0.054847        -0.310032
 O         0.662980        -1.288082         1.723443
 H         4.164056         1.322598         3.636204
 H         4.815151         2.132021         2.056171
 H         3.495221         2.753141         2.778928
 H         2.848793        -1.044783        -0.567837
 H         2.910094         2.087629        -0.343653
 H         0.969543         1.863034         1.911777
 H         0.391496         0.734928        -1.154815
 H        -0.214474        -1.045549        -0.805942
 H        -0.915425         0.206307         0.089879
 H         1.515379        -1.441844         2.088985
