19
Iteration:  4568charge 0 multiplicity 1
 C         3.843036         1.620794         2.712355
 C         3.057400         0.960325         1.647113
 O         3.448216        -0.399087         1.462856
 C         2.572858        -0.339847         0.239135
 C         2.510679         1.133702         0.183625
 C         1.568877         1.084944         1.366052
 C         1.145468        -0.217064         0.869328
 C         0.209526        -0.118023        -0.318665
 O         0.673695        -1.218013         1.750088
 H         4.992802         1.685991         2.681936
 H         3.455934         2.719755         2.993841
 H         3.526153         1.127404         3.713250
 H         2.718240        -1.090504        -0.536238
 H         2.651206         1.939546        -0.603082
 H         0.775776         1.700912         1.756169
 H         0.535460         0.463374        -1.107963
 H         0.144107        -1.193550        -0.719158
 H        -0.752321         0.348274        -0.045166
 H         1.522006        -1.586534         2.160581
