19
Iteration:   916
 C         3.986007         1.729334         2.665403
 C         3.103196         0.880957         1.624876
 O         3.414920        -0.442324         1.448645
 C         2.518089        -0.431130         0.242499
 C         2.563795         1.180626         0.217901
 C         1.621354         1.121602         1.418397
 C         1.098795        -0.285958         0.845643
 C         0.035344         0.010910        -0.277163
 O         0.680111        -1.341947         1.692364
 H         3.806630         1.366633         3.705129
 H         5.010116         1.518104         2.586252
 H         3.691515         2.746105         2.653063
 H         2.893535        -1.244144        -0.524342
 H         2.762166         2.021100        -0.389615
 H         1.130115         2.095767         1.866724
 H        -0.743182         0.677158         0.207046
 H         0.442260         0.732807        -1.048785
 H        -0.319925        -0.858496        -0.691571
 H         1.099541        -1.258077         2.612000
