19
Iteration:     3charge 0 multiplicity 1
 C         3.981907         1.651302         2.579270
 C         3.105921         0.872620         1.617699
 O         3.304352        -0.545575         1.477070
 C         2.500046        -0.448266         0.266937
 C         2.738949         1.103096         0.180446
 C         1.658767         1.178786         1.270030
 C         1.069437        -0.175096         0.843944
 C        -0.033616        -0.113802        -0.180882
 O         0.674603        -1.074749         1.846375
 H         3.890748         1.347817         3.597870
 H         5.073819         1.419154         2.275683
 H         3.809908         2.692015         2.518715
 H         2.752963        -1.172643        -0.461241
 H         3.050358         1.789753        -0.602877
 H         1.211093         2.041328         1.644005
 H        -0.965445         0.379359         0.252574
 H         0.297078         0.586692        -1.048930
 H        -0.186598        -1.074250        -0.565994
 H         1.551374        -1.173827         2.378162
