19
Iteration:  4567
 C         3.842958         1.619824         2.703338
 C         3.049709         0.954696         1.643407
 O         3.448768        -0.400284         1.466556
 C         2.572051        -0.347688         0.246389
 C         2.511105         1.148225         0.187937
 C         1.562735         1.094656         1.367200
 C         1.146062        -0.215074         0.875844
 C         0.218999        -0.122477        -0.314483
 O         0.671059        -1.225425         1.742873
 H         5.014956         1.650566         2.692840
 H         3.496696         2.715877         2.974605
 H         3.545631         1.172618         3.703921
 H         2.714488        -1.079411        -0.549149
 H         2.624667         1.958034        -0.606640
 H         0.771642         1.700247         1.714382
 H         0.541907         0.492720        -1.127068
 H         0.116069        -1.182078        -0.732684
 H        -0.696611         0.339600        -0.028015
 H         1.523345        -1.604211         2.180404
