19
Iteration:  3133
 C         3.830857         1.599422         2.799685
 C         3.062980         0.923090         1.657587
 O         3.387894        -0.516664         1.369907
 C         2.579885        -0.291425         0.138233
 C         2.607533         1.277779         0.240043
 C         1.645756         1.032086         1.370052
 C         1.109550        -0.219416         0.779435
 C         0.044114        -0.146465        -0.229246
 O         0.783366        -1.148959         1.790365
 H         3.521788         1.230956         3.825959
 H         4.915406         1.462474         2.722050
 H         3.582430         2.629366         2.590898
 H         2.591120        -1.010446        -0.681515
 H         2.551074         2.152715        -0.516732
 H         0.995878         1.656627         1.897583
 H         0.228733         0.595164        -0.879289
 H         0.064289        -0.933044        -0.964784
 H        -1.025212        -0.127207         0.264073
 H         1.684291        -1.370367         2.194624
