19
Iteration:   638
 C         3.728453         1.505077         2.812243
 C         3.144527         0.831949         1.638668
 O         3.427657        -0.538697         1.211135
 C         2.521306        -0.318522         0.104434
 C         2.744673         1.289790         0.271943
 C         1.576255         1.171622         1.236762
 C         1.154239        -0.144405         0.835670
 C        -0.077911        -0.260620        -0.152047
 O         0.852397        -1.033519         1.877039
 H         3.313231         0.990775         3.651845
 H         4.788553         1.510712         3.087654
 H         3.249535         2.548227         2.965309
 H         2.553760        -1.000891        -0.690455
 H         3.099818         1.967868        -0.520051
 H         0.928928         1.846266         1.983713
 H        -0.825390         0.302718         0.291342
 H         0.086914         0.357250        -0.972594
 H        -0.299564        -1.293490        -0.602633
 H         1.549195        -1.232143         2.499913
