19
Iteration:  1949charge 0 multiplicity 1
 C         3.646184         1.347167         2.901157
 C         3.069048         0.948219         1.603078
 O         3.478156        -0.440529         1.300846
 C         2.575311        -0.324389         0.097007
 C         2.670324         1.249122         0.149432
 C         1.633169         1.193464         1.251791
 C         1.117295        -0.190414         0.758087
 C        -0.103624        -0.208603        -0.068387
 O         0.920968        -1.036854         1.822403
 H         3.109178         0.542812         3.462848
 H         4.662980         1.191031         3.056851
 H         3.417846         2.318430         3.335564
 H         2.950729        -1.023462        -0.717947
 H         2.883255         2.116254        -0.459529
 H         1.098797         1.907671         1.752623
 H         0.091231         0.259783        -0.965569
 H        -0.320455        -1.209308        -0.294544
 H        -0.989505         0.229867         0.463939
 H         1.841461        -1.122263         2.164485
