19
Iteration:  1754
 C         3.894160         1.424674         2.815442
 C         3.050149         0.960496         1.658512
 O         3.288919        -0.505644         1.361818
 C         2.544892        -0.258902         0.114808
 C         2.741193         1.302561         0.256342
 C         1.543627         1.264651         1.243980
 C         1.069766        -0.185466         0.832803
 C        -0.037921        -0.195810        -0.202692
 O         0.891796        -1.212053         1.817788
 H         3.692947         0.741619         3.691756
 H         4.952961         1.513376         2.655384
 H         3.517182         2.365254         3.259734
 H         2.685788        -1.000584        -0.704101
 H         3.038853         2.207698        -0.366648
 H         1.103128         2.171179         1.655835
 H         0.134145         0.318593        -1.078309
 H         0.027518        -1.311920        -0.670056
 H        -1.096859        -0.100227         0.192080
 H         1.795474        -1.426263         1.946366
