19
Iteration:  1620
 C         4.153516         1.703690         2.560568
 C         3.089615         0.926646         1.801084
 O         3.409634        -0.435365         1.495745
 C         2.535544        -0.293956         0.277532
 C         2.540673         1.232324         0.371561
 C         1.506884         1.112789         1.406196
 C         1.041907        -0.287696         0.814732
 C         0.058424        -0.000385        -0.268091
 O         0.675174        -1.471629         1.521658
 H         4.123975         1.581849         3.619141
 H         5.101647         1.506966         2.097809
 H         4.086188         2.768484         2.320544
 H         2.886830        -0.967374        -0.505158
 H         2.597043         2.061826        -0.273418
 H         0.738580         1.820013         1.970193
 H        -0.136209         1.062624        -0.419145
 H         0.057623        -0.618723        -1.156780
 H        -0.867655        -0.315542         0.307608
 H         1.347244        -1.384297         2.283800
