19
Iteration:  2751charge 0 multiplicity 1
 C         4.057710         1.905659         2.622548
 C         3.164004         0.972514         1.704650
 O         3.475279        -0.428842         1.421744
 C         2.511363        -0.419238         0.285806
 C         2.643191         1.159873         0.365482
 C         1.519621         1.058969         1.449260
 C         1.119426        -0.348567         0.911301
 C         0.068543         0.102905        -0.293819
 O         0.507723        -1.527982         1.536456
 H         3.978530         1.683602         3.712674
 H         5.047854         1.901959         2.205544
 H         3.879649         2.962455         2.363727
 H         2.842818        -1.103412        -0.554881
 H         2.712844         1.999050        -0.317403
 H         0.839023         1.825970         1.851236
 H         0.471033         0.838314        -0.851363
 H        -0.310234        -0.790905        -0.811610
 H        -0.849288         0.453884         0.339700
 H         1.064676        -1.925329         2.273841
