19
Iteration:   790charge 0 multiplicity 1
 C         3.937486         1.617776         2.770544
 C         3.114096         0.931610         1.689328
 O         3.412938        -0.471859         1.358432
 C         2.542438        -0.334595         0.231868
 C         2.597552         1.208073         0.200450
 C         1.636031         1.088111         1.336979
 C         1.098045        -0.266147         0.792960
 C         0.063314        -0.079056        -0.253721
 O         0.664104        -1.243702         1.745018
 H         3.723197         1.232282         3.751327
 H         4.993764         1.783829         2.522699
 H         3.570343         2.704360         2.781125
 H         2.816678        -1.063618        -0.433080
 H         2.617930         1.984579        -0.526432
 H         1.027555         1.847756         1.928188
 H        -0.762990         0.440856         0.255685
 H         0.455839         0.371289        -1.136662
 H        -0.499205        -1.032469        -0.426442
 H         1.371875        -1.079156         2.488040
