19
Iteration:  1535
 C         3.792106         1.494864         2.791775
 C         3.147130         0.912473         1.623411
 O         3.407241        -0.424440         1.389599
 C         2.594205        -0.326209         0.150790
 C         2.656728         1.206014         0.170200
 C         1.668821         1.100401         1.309652
 C         1.132764        -0.249815         0.831560
 C        -0.077096        -0.086938        -0.165423
 O         0.764238        -1.142019         1.772664
 H         3.751682         0.722232         3.631314
 H         4.851956         1.686087         2.572133
 H         3.226329         2.503319         3.045287
 H         2.785689        -1.124461        -0.541880
 H         2.916011         1.983884        -0.544031
 H         0.954101         1.961303         1.691258
 H        -0.907242         0.348850         0.317131
 H         0.232487         0.501014        -1.174019
 H        -0.548960        -1.118245        -0.464700
 H         1.439304        -1.270890         2.410990
