19
Iteration:  1886
 C         3.990183         1.682393         2.577711
 C         3.036640         0.871459         1.794917
 O         3.368247        -0.503262         1.398241
 C         2.572705        -0.312610         0.201533
 C         2.660349         1.251912         0.419443
 C         1.574253         1.128782         1.473387
 C         1.111235        -0.241993         0.730921
 C         0.000736        -0.135987        -0.277343
 O         0.692898        -1.233819         1.655982
 H         4.091540         1.160498         3.554003
 H         4.996896         1.722456         2.166259
 H         3.504638         2.598633         2.728064
 H         2.961336        -0.876202        -0.722116
 H         2.836613         2.043208        -0.283889
 H         0.953163         1.772753         2.023244
 H         0.116107         0.614402        -1.061128
 H        -0.137993        -1.208177        -0.650038
 H        -0.849173         0.165625         0.257193
 H         1.604949        -1.393528         2.161107
