19
Iteration:  4582charge 0 multiplicity 1
 C         3.757550         1.672567         2.835140
 C         3.101300         0.984498         1.617087
 O         3.437017        -0.423810         1.377463
 C         2.568228        -0.424784         0.227153
 C         2.654025         1.210571         0.207709
 C         1.608680         1.074091         1.394609
 C         1.090925        -0.281681         0.791790
 C         0.080300        -0.155162        -0.357736
 O         0.711407        -1.159922         1.820392
 H         4.758207         1.905822         2.582622
 H         3.185657         2.585801         3.125628
 H         3.866196         0.843204         3.624994
 H         2.965595        -1.074569        -0.571983
 H         2.894602         1.839379        -0.608410
 H         1.136853         1.971480         1.909161
 H         0.512402         0.493536        -1.136830
 H        -0.127500        -1.149876        -0.792383
 H        -1.003964         0.159001        -0.071665
 H         1.518575        -1.455738         2.272245
