19
Iteration:   529
 C         4.031104         1.749262         2.521192
 C         3.069226         0.904777         1.739827
 O         3.470009        -0.553713         1.413186
 C         2.534312        -0.389333         0.296613
 C         2.649244         1.199449         0.354759
 C         1.567780         1.153813         1.495606
 C         1.025572        -0.240501         0.872752
 C         0.080240        -0.052120        -0.268656
 O         0.598300        -1.322995         1.630583
 H         4.038379         1.687783         3.604213
 H         4.980411         1.774658         1.947803
 H         3.574296         2.790759         2.280407
 H         2.707081        -0.980126        -0.583748
 H         2.868746         1.898354        -0.435575
 H         0.980204         2.090427         1.857510
 H        -0.911855        -0.203207         0.127660
 H         0.083287         0.941860        -0.612153
 H         0.243858        -0.742005        -1.187273
 H         1.264377        -1.412342         2.249177
