19
Iteration:  1474charge 0 multiplicity 1
 C         3.911597         1.590315         2.701239
 C         3.072659         0.855091         1.648797
 O         3.300759        -0.622943         1.424862
 C         2.549867        -0.289155         0.181841
 C         2.710063         1.273078         0.276205
 C         1.558033         1.140758         1.284921
 C         1.154027        -0.191887         0.799001
 C        -0.083543        -0.173906        -0.259241
 O         0.838902        -1.067254         1.797072
 H         3.610779         1.450385         3.730428
 H         4.904737         1.139837         2.690776
 H         3.977516         2.660413         2.621062
 H         2.838568        -0.982175        -0.602045
 H         2.981111         2.034876        -0.383599
 H         0.896813         1.812091         1.919181
 H        -0.949896        -0.641294         0.281514
 H        -0.554509         0.749199        -0.412047
 H         0.220386        -0.677569        -1.146710
 H         1.780853        -1.217672         2.241517
