19
Iteration:   680
 C         3.999937         1.600354         2.683586
 C         3.103825         0.967998         1.655325
 O         3.277087        -0.470449         1.454701
 C         2.519435        -0.311072         0.215401
 C         2.677109         1.220997         0.302225
 C         1.598989         1.182441         1.348087
 C         1.084804        -0.268162         0.755976
 C        -0.043891        -0.133752        -0.258029
 O         0.781890        -1.259069         1.761199
 H         3.962583         1.004904         3.636067
 H         5.004843         1.441287         2.295624
 H         3.796120         2.714185         2.825092
 H         2.926923        -0.951161        -0.520114
 H         2.903474         1.959254        -0.474803
 H         0.982742         2.018843         1.852990
 H        -1.025405        -0.309582         0.316686
 H        -0.107590         0.845223        -0.820449
 H         0.000248        -1.033891        -1.011677
 H         1.738729        -1.386383         2.104597
