19
Iteration:  2390charge 0 multiplicity 1
 C         3.733060         1.471992         2.887537
 C         3.026059         0.919357         1.687493
 O         3.437911        -0.516968         1.287499
 C         2.588915        -0.195418         0.066196
 C         2.754151         1.246815         0.256158
 C         1.631341         1.187012         1.289658
 C         1.064852        -0.223441         0.754848
 C        -0.107461        -0.304097        -0.205821
 O         0.885096        -1.104031         1.829424
 H         3.222736         1.258519         3.781507
 H         4.750797         1.236344         3.001172
 H         3.687718         2.582818         2.709003
 H         2.862485        -0.834688        -0.784367
 H         2.809213         2.161593        -0.229547
 H         1.104236         2.122788         1.714300
 H         0.025353         0.279041        -1.155513
 H        -0.265875        -1.379320        -0.406897
 H        -0.923599         0.139886         0.341148
 H         1.689161        -1.120973         2.405150
