19
Iteration:  3096
 C         3.737915         1.408118         2.847471
 C         3.098525         0.899265         1.614372
 O         3.381941        -0.490070         1.340008
 C         2.537204        -0.246373         0.160880
 C         2.812125         1.384755         0.198203
 C         1.523029         1.215245         1.176584
 C         1.094193        -0.187105         0.841668
 C        -0.062612        -0.299749        -0.151089
 O         0.874281        -1.145746         1.815176
 H         3.698525         0.638456         3.684530
 H         4.805740         1.568877         2.595482
 H         3.320966         2.330212         3.330323
 H         2.658907        -0.872950        -0.743186
 H         3.013902         2.262517        -0.301428
 H         0.960893         2.025589         1.761548
 H         0.389453         0.296496        -1.094864
 H        -0.226632        -1.411476        -0.254304
 H        -0.932290         0.187571         0.023521
 H         1.743483        -1.201295         2.338719
