19
Iteration:  2538
 C         4.021359         1.744299         2.522116
 C         3.001922         1.010088         1.730610
 O         3.432455        -0.444020         1.494988
 C         2.602975        -0.375092         0.348522
 C         2.566692         1.264483         0.377052
 C         1.528792         1.039649         1.530471
 C         1.105400        -0.290931         0.771177
 C         0.107890        -0.029561        -0.294266
 O         0.631823        -1.382895         1.539275
 H         4.360705         1.017637         3.293391
 H         4.854903         2.001557         1.796467
 H         3.871565         2.773716         2.869271
 H         2.862796        -0.975832        -0.502617
 H         2.739690         2.107086        -0.206844
 H         0.737105         1.533395         2.074802
 H         0.370578         0.885624        -0.979033
 H        -0.037430        -0.973678        -0.804834
 H        -0.876078         0.022151         0.112943
 H         1.276408        -1.783803         2.060086
