19
Iteration:  4248charge 0 multiplicity 1
 C         3.979848         1.670753         2.693279
 C         3.012197         1.009926         1.727479
 O         3.371659        -0.424804         1.439349
 C         2.527511        -0.247353         0.222471
 C         2.571832         1.329859         0.333078
 C         1.464698         1.108008         1.315432
 C         1.154475        -0.346190         0.831093
 C         0.091135        -0.220652        -0.330931
 O         0.798562        -1.381784         1.690392
 H         3.388780         1.947987         3.624697
 H         4.742228         1.028788         3.061923
 H         4.421822         2.660869         2.410978
 H         2.720070        -0.880146        -0.637231
 H         2.693855         2.115202        -0.387769
 H         0.934496         1.863258         1.804320
 H         0.610729         0.580156        -0.986367
 H        -0.160744        -1.133654        -0.871149
 H        -0.809562         0.213359         0.161002
 H         1.525707        -1.412518         2.326778
