19
Iteration:  2016charge 0 multiplicity 1
 C         3.928403         1.630549         2.629097
 C         3.070873         0.859426         1.679809
 O         3.385494        -0.475413         1.474343
 C         2.491684        -0.319590         0.220156
 C         2.567697         1.247648         0.300087
 C         1.568504         1.121300         1.426930
 C         1.102788        -0.183749         0.825110
 C        -0.006252        -0.080345        -0.255904
 O         0.845213        -1.285544         1.619313
 H         3.647136         1.331005         3.678811
 H         4.987500         1.448215         2.486420
 H         3.792718         2.672293         2.575444
 H         2.892255        -1.010805        -0.614300
 H         2.842361         2.120607        -0.372708
 H         0.975355         1.784589         2.149561
 H         0.160817         0.778584        -0.809234
 H         0.021455        -0.951094        -0.922242
 H        -0.936572        -0.054459         0.271872
 H         1.653698        -1.513035         2.238541
