19
Iteration:  2324
 C         4.009132         1.734271         2.601361
 C         3.151438         0.929677         1.627133
 O         3.380185        -0.464038         1.479513
 C         2.466991        -0.395102         0.326011
 C         2.622077         1.222939         0.305656
 C         1.538063         1.103385         1.472575
 C         1.074690        -0.251231         0.815671
 C         0.099906        -0.079619        -0.322022
 O         0.653123        -1.328854         1.653971
 H         4.298161         1.012158         3.286837
 H         4.909312         2.224838         2.284307
 H         3.412632         2.546007         3.050085
 H         2.776344        -1.007741        -0.494449
 H         2.881346         2.074418        -0.391700
 H         0.934226         1.838556         2.028527
 H         0.383601         0.933012        -0.834520
 H         0.038126        -0.887433        -1.055030
 H        -0.870278         0.104990         0.056088
 H         1.563472        -1.595881         2.106717
