19
Iteration:  4905
 C         3.825169         1.720546         2.684460
 C         3.021432         0.913457         1.684536
 O         3.253340        -0.554607         1.615813
 C         2.583295        -0.418706         0.325698
 C         2.855287         1.114078         0.264119
 C         1.594547         1.193378         1.227279
 C         1.091385        -0.185941         0.693898
 C         0.026533        -0.171139        -0.318193
 O         0.762307        -1.138577         1.714626
 H         4.089524         1.188167         3.581052
 H         4.759153         2.003160         2.166898
 H         3.316774         2.657247         2.880985
 H         2.800952        -1.207368        -0.426666
 H         3.467276         1.801631        -0.396890
 H         1.169121         2.100631         1.619185
 H         0.319700         0.226483        -1.193910
 H        -0.478738        -1.138334        -0.547791
 H        -0.808941         0.353877         0.146526
 H         1.551210        -1.149780         2.233986
