19
Iteration:   338charge 0 multiplicity 1
 C         3.900928         1.662717         2.678418
 C         3.040818         0.879443         1.661432
 O         3.381333        -0.531155         1.278269
 C         2.553912        -0.338071         0.132888
 C         2.710910         1.261083         0.293090
 C         1.578745         1.110685         1.465499
 C         1.105589        -0.247925         0.797856
 C         0.013243        -0.136216        -0.220873
 O         0.746016        -1.201951         1.827096
 H         3.728938         1.247337         3.783607
 H         4.928685         1.686012         2.311055
 H         3.491728         2.690353         2.776378
 H         2.727087        -0.992185        -0.696299
 H         2.895785         2.166849        -0.228798
 H         0.924586         1.898164         2.051936
 H        -0.679871         0.695780         0.105378
 H         0.376694         0.173036        -1.227554
 H        -0.455592        -1.120091        -0.404348
 H         1.589075        -1.286200         2.227222
