19
Iteration:  2358
 C         3.877037         1.508016         2.769526
 C         3.078728         0.973737         1.658182
 O         3.469125        -0.408201         1.295287
 C         2.505775        -0.308453         0.189781
 C         2.662635         1.260393         0.255115
 C         1.551690         1.093563         1.354989
 C         1.154284        -0.246429         0.813248
 C         0.078771        -0.231014        -0.257691
 O         0.666980        -1.157829         1.800607
 H         3.612007         0.975568         3.648944
 H         4.900818         1.512870         2.543153
 H         3.453843         2.502402         3.022733
 H         2.787956        -1.067906        -0.547811
 H         2.816940         2.168773        -0.261767
 H         0.965874         1.904592         1.917073
 H         0.243355         0.606967        -0.965323
 H        -0.033946        -1.143247        -0.867247
 H        -0.860739        -0.041398         0.284257
 H         1.445160        -1.220694         2.374701
