19
Iteration:  1222
 C         3.988564         1.585993         2.631421
 C         3.071939         0.960601         1.711572
 O         3.328587        -0.397942         1.436397
 C         2.515420        -0.384395         0.283620
 C         2.686889         1.177955         0.291261
 C         1.607337         1.218333         1.315222
 C         1.124061        -0.265508         0.776260
 C        -0.033446        -0.044789        -0.247619
 O         0.759165        -1.348660         1.707822
 H         3.867819         1.183092         3.637491
 H         4.935496         1.445518         2.209629
 H         3.757656         2.685179         2.783640
 H         2.769348        -1.174570        -0.369105
 H         3.058435         1.837483        -0.438367
 H         0.845442         1.896065         1.668257
 H        -0.919233         0.081821         0.415925
 H        -0.047608         0.818786        -0.794021
 H        -0.128607        -0.806006        -0.911739
 H         1.342238        -1.267027         2.435112
