19
Iteration:   617
 C         3.655047         1.429054         2.859781
 C         3.137727         0.973238         1.631505
 O         3.421485        -0.484278         1.273470
 C         2.569949        -0.304633         0.062829
 C         2.664969         1.213692         0.156362
 C         1.732561         1.123529         1.281250
 C         1.079392        -0.146444         0.825894
 C        -0.098826        -0.185930        -0.162835
 O         0.834817        -1.110918         1.915823
 H         3.284387         0.927761         3.691502
 H         4.775349         1.276092         2.827731
 H         3.475420         2.544497         3.110791
 H         2.978408        -0.889286        -0.723034
 H         2.845844         2.011686        -0.580082
 H         1.300904         2.196483         1.640073
 H        -0.813768         0.438607         0.214229
 H         0.060643         0.079153        -1.116184
 H        -0.276537        -1.289683        -0.216722
 H         1.795787        -1.262314         2.347474
