19
Iteration:   411charge 0 multiplicity 1
 C         3.819631         1.461928         2.721395
 C         3.008993         0.944629         1.644215
 O         3.335204        -0.492943         1.377104
 C         2.558573        -0.285801         0.207088
 C         2.764383         1.248973         0.252106
 C         1.621767         1.205860         1.220547
 C         1.080836        -0.214086         0.816227
 C        -0.130717        -0.179633        -0.149757
 O         0.930642        -1.188706         1.804434
 H         3.284578         1.083008         3.458221
 H         4.897571         1.315349         2.616358
 H         3.678887         2.576984         2.917684
 H         2.854639        -0.862001        -0.651830
 H         3.188874         1.896322        -0.508727
 H         1.074697         2.087396         1.794690
 H        -0.876748         0.434701         0.313401
 H         0.074229         0.294676        -1.072438
 H        -0.475021        -1.220946        -0.397966
 H         1.780001        -1.145879         2.169842
