19
Iteration:  2074charge 0 multiplicity 1
 C         4.011021         1.808310         2.443015
 C         3.099810         0.939531         1.712880
 O         3.537681        -0.456963         1.420913
 C         2.545983        -0.335888         0.370025
 C         2.550483         1.173631         0.387183
 C         1.574850         1.010138         1.714995
 C         1.107599        -0.230081         0.888618
 C         0.100615        -0.057956        -0.358636
 O         0.517820        -1.368684         1.503689
 H         4.129316         1.235680         3.329489
 H         5.047892         2.007293         2.020585
 H         3.517296         2.748965         2.838657
 H         2.911953        -0.816238        -0.502501
 H         2.543945         1.978394        -0.258627
 H         0.887541         1.859691         1.905655
 H         0.487559         0.600928        -1.252798
 H        -0.259627        -1.017918        -0.668500
 H        -0.782054         0.395337        -0.035352
 H         1.156427        -1.746031         2.023431
