19
Iteration:  3895
 C         3.950822         1.741988         2.667858
 C         3.084270         0.924091         1.720723
 O         3.398678        -0.478519         1.364931
 C         2.538196        -0.283476         0.195504
 C         2.500775         1.274137         0.342926
 C         1.504325         1.094637         1.421465
 C         1.101221        -0.305850         0.864911
 C         0.201135        -0.107543        -0.388799
 O         0.697696        -1.382421         1.766087
 H         4.287543         1.492573         3.597618
 H         4.854792         2.012626         2.139843
 H         3.406009         2.622437         2.954867
 H         2.986930        -0.894363        -0.608884
 H         2.777255         2.216779        -0.273525
 H         0.938641         1.873263         1.965661
 H         0.537436         0.488974        -1.210912
 H         0.003791        -1.095422        -0.779318
 H        -0.824656         0.407664        -0.207224
 H         1.329931        -1.679252         2.519276
