19
Iteration:  2763
 C         4.076455         1.870579         2.568995
 C         3.150869         1.018810         1.726208
 O         3.532779        -0.448338         1.465723
 C         2.549401        -0.359573         0.320974
 C         2.602106         1.178478         0.352765
 C         1.522519         0.982738         1.467735
 C         1.020027        -0.344358         0.802011
 C         0.026051         0.019220        -0.205423
 O         0.533921        -1.430808         1.530451
 H         3.866091         1.632763         3.642211
 H         5.096779         1.490330         2.525405
 H         3.836167         2.909987         2.506693
 H         2.818131        -0.989314        -0.561915
 H         2.941609         1.842634        -0.501107
 H         0.772914         1.846675         1.735988
 H         0.391548         0.742579        -0.831611
 H        -0.190513        -0.798103        -0.874290
 H        -0.947248         0.520095         0.147246
 H         1.388587        -1.795952         1.962628
