19
Iteration:  4130charge 0 multiplicity 1
 C         3.792744         1.741310         2.810229
 C         3.048704         0.955251         1.703247
 O         3.380906        -0.419409         1.428214
 C         2.586480        -0.310972         0.112709
 C         2.673499         1.236943         0.280707
 C         1.613946         1.129351         1.312896
 C         1.140876        -0.382922         0.791096
 C        -0.052393        -0.159945        -0.210966
 O         0.801935        -1.322091         1.668683
 H         4.279089         1.009823         3.585545
 H         4.580183         2.308662         2.345849
 H         3.004167         2.279788         3.339402
 H         2.832784        -0.930651        -0.734106
 H         2.972801         2.019683        -0.386439
 H         1.265417         2.007840         1.754833
 H         0.302542         0.912294        -0.653420
 H         0.065229        -1.064991        -0.870866
 H        -1.020827        -0.074529         0.220830
 H         1.559939        -1.381782         2.331371
