19
Iteration:  4704charge 0 multiplicity 1
 C         3.875265         1.826703         2.656555
 C         3.122311         0.942497         1.736144
 O         3.536351        -0.550808         1.422436
 C         2.584909        -0.386598         0.279573
 C         2.630657         1.173951         0.342630
 C         1.569930         1.069847         1.390961
 C         1.069745        -0.295514         0.835447
 C         0.186794        -0.174989        -0.428595
 O         0.459058        -1.169024         1.759447
 H         3.213291         2.638866         3.088777
 H         4.192285         1.207574         3.494914
 H         4.706407         2.376211         2.134887
 H         2.879985        -0.855649        -0.677737
 H         3.005802         1.798352        -0.535791
 H         1.101188         1.941668         1.775625
 H         0.557568         0.584648        -1.256669
 H        -0.030621        -1.096672        -0.850626
 H        -0.747855         0.272770        -0.172264
 H         1.129195        -1.492572         2.430379
