19
Iteration:  4244charge 0 multiplicity 1
 C         3.969418         1.663359         2.711324
 C         3.034304         0.997436         1.717140
 O         3.360562        -0.403405         1.427468
 C         2.553206        -0.246669         0.185736
 C         2.571291         1.332781         0.366032
 C         1.493434         1.097686         1.310317
 C         1.095708        -0.339663         0.849454
 C         0.091846        -0.265236        -0.328927
 O         0.805118        -1.346389         1.694517
 H         3.432471         1.939890         3.583668
 H         4.835064         1.021686         3.101644
 H         4.442982         2.659423         2.557510
 H         2.729034        -0.962041        -0.649507
 H         2.818906         2.139219        -0.329411
 H         0.768812         1.865458         1.761931
 H         0.350673         0.436471        -1.013401
 H        -0.175341        -1.154291        -0.880552
 H        -0.806342         0.303969         0.052590
 H         1.653728        -1.397523         2.217355
