19
Iteration:  1557
 C         3.856738         1.635311         2.719569
 C         3.086188         0.877483         1.630509
 O         3.489760        -0.514765         1.291087
 C         2.552513        -0.368670         0.196611
 C         2.648766         1.204164         0.246136
 C         1.532057         1.065516         1.428437
 C         1.077445        -0.241126         0.813023
 C         0.072401        -0.019846        -0.251789
 O         0.712655        -1.215065         1.816553
 H         3.845039         0.895037         3.574987
 H         4.881254         1.910489         2.489816
 H         3.267867         2.628430         3.019747
 H         2.892011        -0.930344        -0.635056
 H         2.761941         2.082852        -0.338568
 H         0.918075         1.925559         1.974852
 H        -0.534494         0.759609         0.050185
 H         0.548259         0.170535        -1.337467
 H        -0.757737        -0.807131        -0.347601
 H         1.443266        -1.064643         2.519191
