19
Iteration:  1022charge 0 multiplicity 1
 C         3.779770         1.567170         2.784556
 C         3.179610         0.924999         1.590964
 O         3.467811        -0.451454         1.400982
 C         2.542864        -0.306886         0.200283
 C         2.676498         1.201606         0.145897
 C         1.667963         1.110747         1.298283
 C         1.137070        -0.253738         0.804292
 C        -0.034364        -0.150401        -0.187057
 O         0.642145        -1.118094         1.834367
 H         3.512453         0.842889         3.627824
 H         4.964659         1.467875         2.634653
 H         3.594967         2.612306         2.975692
 H         2.682918        -0.980326        -0.724398
 H         2.853343         1.941046        -0.571486
 H         1.168035         1.944371         1.934574
 H        -0.978801        -0.145315         0.322627
 H         0.196366         0.695140        -0.922923
 H        -0.093708        -1.144547        -0.824655
 H         1.363599        -1.500216         2.222141
