19
Iteration:  4516
 C         3.998960         1.848022         2.565932
 C         3.119913         0.953834         1.768350
 O         3.353552        -0.552316         1.610766
 C         2.587504        -0.309825         0.275966
 C         2.618803         1.196757         0.468646
 C         1.517691         1.089248         1.443379
 C         1.133599        -0.284461         0.680914
 C        -0.006868        -0.192559        -0.330547
 O         0.705343        -1.267154         1.508971
 H         4.874852         1.419504         2.884026
 H         4.265809         2.744097         1.954666
 H         3.679191         2.364434         3.496069
 H         2.940458        -1.026553        -0.475516
 H         2.629772         1.976051        -0.334116
 H         0.963176         1.993935         1.781075
 H         0.035059         0.460554        -1.147688
 H        -0.027811        -1.255747        -0.758268
 H        -1.019227        -0.029469         0.263266
 H         1.492456        -1.419287         2.040360
