19
Iteration:  1650
 C         3.937389         1.667492         2.596459
 C         3.064694         0.915728         1.705058
 O         3.350266        -0.445032         1.475323
 C         2.514840        -0.292091         0.184017
 C         2.588197         1.211125         0.317993
 C         1.594695         1.084820         1.505876
 C         1.099819        -0.244961         0.796764
 C         0.044271         0.001174        -0.222033
 O         0.777523        -1.402762         1.604131
 H         3.754103         1.422744         3.652699
 H         5.046803         1.381494         2.353405
 H         3.909329         2.727772         2.437311
 H         2.935859        -0.997118        -0.608049
 H         2.884966         2.074316        -0.285081
 H         0.869033         1.750311         2.009547
 H         0.191955         0.849147        -1.069856
 H        -0.352318        -0.906549        -0.519277
 H        -0.774521         0.438603         0.347591
 H         1.772769        -1.567310         1.888068
