19
Iteration:  2284charge 0 multiplicity 1
 C         4.015495         1.841409         2.481577
 C         3.105667         0.920654         1.761220
 O         3.387282        -0.564239         1.565005
 C         2.630725        -0.345197         0.241924
 C         2.675758         1.254585         0.396161
 C         1.521183         1.085337         1.394877
 C         1.098822        -0.332410         0.786060
 C         0.014589         0.012485        -0.237688
 O         0.592137        -1.387100         1.575301
 H         4.391169         1.390230         3.469587
 H         4.785027         2.115455         1.762422
 H         3.407102         2.716438         2.900961
 H         3.141337        -0.965442        -0.573764
 H         3.134606         1.837639        -0.345540
 H         0.768873         1.862820         1.815910
 H         0.413453         0.792837        -0.760754
 H        -0.484553        -0.751744        -0.840567
 H        -0.882729         0.310215         0.434267
 H         1.317125        -1.606492         2.092913
