19
Iteration:  4410
 C         3.794547         1.590141         2.875638
 C         3.027947         0.895695         1.705775
 O         3.384143        -0.462694         1.320607
 C         2.549746        -0.250815         0.118340
 C         2.793539         1.344126         0.299703
 C         1.571294         1.137089         1.265951
 C         1.123119        -0.153783         0.667253
 C        -0.019211        -0.442798        -0.284817
 O         0.820781        -1.126552         1.842968
 H         3.749545         0.962579         3.850881
 H         4.842724         1.754625         2.688591
 H         3.175569         2.507835         3.089564
 H         2.965238        -0.912951        -0.643556
 H         3.038100         2.217942        -0.372770
 H         0.933761         1.776181         1.932725
 H         0.014555        -0.113126        -1.305277
 H        -0.114981        -1.499865        -0.235556
 H        -0.979621        -0.042759         0.136936
 H         1.423512        -0.916262         2.545184
