19
Iteration:  2858
 C         3.719717         1.357404         2.885726
 C         3.081434         0.994881         1.631870
 O         3.419300        -0.522984         1.289362
 C         2.605098        -0.224671         0.096377
 C         2.691084         1.287767         0.194075
 C         1.580214         1.251167         1.175839
 C         1.164956        -0.183094         0.774742
 C        -0.028247        -0.258000        -0.093152
 O         0.818495        -1.138035         1.879597
 H         3.660365         0.653070         3.741901
 H         4.763514         1.535952         2.954156
 H         3.126512         2.222847         3.276046
 H         3.012156        -0.769006        -0.813704
 H         2.930618         1.896056        -0.745873
 H         0.931486         2.053556         1.574376
 H        -0.049676         0.264621        -1.057733
 H        -0.047628        -1.316445        -0.489484
 H        -0.980026         0.091169         0.462681
 H         1.497783        -1.019059         2.488791
