19
Iteration:  4864charge 0 multiplicity 1
 C         3.667726         1.487400         2.902314
 C         3.124220         0.958593         1.578151
 O         3.367384        -0.415699         1.415089
 C         2.546372        -0.444908         0.242331
 C         2.720819         1.153360         0.124426
 C         1.685978         1.168814         1.142496
 C         1.217157        -0.236806         0.764966
 C         0.093863        -0.308142        -0.344334
 O         0.654934        -0.839629         1.959814
 H         3.906676         0.567539         3.375725
 H         4.625256         2.007093         2.857082
 H         2.937757         1.901775         3.641110
 H         2.858266        -1.243133        -0.450529
 H         3.126604         1.802562        -0.693674
 H         1.074846         1.786454         1.723331
 H         0.502895         0.114898        -1.324058
 H        -0.191256        -1.466697        -0.445361
 H        -0.906392         0.245428        -0.026963
 H         1.448551        -1.214625         2.505575
