19
Iteration:  2985charge 0 multiplicity 1
 C         4.009741         1.829942         2.547228
 C         3.063594         0.950275         1.756683
 O         3.541661        -0.422204         1.434536
 C         2.531699        -0.312858         0.245798
 C         2.655215         1.209895         0.377155
 C         1.544034         1.094845         1.502893
 C         1.057145        -0.342938         0.844458
 C         0.015672        -0.014755        -0.254791
 O         0.537948        -1.484193         1.608938
 H         3.814648         1.626840         3.598917
 H         5.043399         1.406833         2.347197
 H         4.220906         2.934687         2.341443
 H         2.728006        -0.967043        -0.650065
 H         3.010070         2.067161        -0.302468
 H         0.917787         1.868643         1.872782
 H         0.335981         1.044977        -0.713848
 H         0.184514        -0.750461        -1.056479
 H        -0.984525        -0.058600        -0.147390
 H         1.336397        -1.916850         1.875269
