19
Iteration:  3606
 C         3.967007         1.779164         2.638135
 C         3.077842         0.941391         1.754604
 O         3.356562        -0.465846         1.387886
 C         2.531595        -0.336311         0.159306
 C         2.544309         1.348673         0.309256
 C         1.533675         1.023562         1.434820
 C         1.117245        -0.303569         0.837284
 C         0.152679        -0.097872        -0.282076
 O         0.673300        -1.380477         1.708974
 H         3.491684         2.055079         3.595848
 H         4.905857         1.186936         2.854502
 H         4.350084         2.692270         2.276628
 H         3.016850        -0.991747        -0.520052
 H         2.748499         2.182989        -0.261920
 H         0.904119         1.867196         1.846322
 H         0.600044         0.668551        -0.962489
 H         0.153957        -1.023210        -0.888706
 H        -0.842744         0.055188         0.142870
 H         1.505450        -1.683212         2.237982
