19
Iteration:  1135charge 0 multiplicity 1
 C         3.934868         1.709097         2.596375
 C         3.124522         0.944207         1.671368
 O         3.488068        -0.495597         1.407418
 C         2.541588        -0.382001         0.239048
 C         2.617195         1.266440         0.255256
 C         1.615818         1.006374         1.520279
 C         1.114126        -0.269500         0.809936
 C         0.100708        -0.047151        -0.255347
 O         0.558079        -1.282498         1.694014
 H         3.872652         1.287681         3.645257
 H         4.914326         1.699393         2.208417
 H         3.658341         2.847211         2.656778
 H         2.709259        -1.179765        -0.494159
 H         2.522365         2.137137        -0.453135
 H         0.927504         1.654299         1.949680
 H        -0.764229         0.682709         0.087115
 H         0.621881         0.311017        -1.139121
 H        -0.334329        -0.937880        -0.585518
 H         0.964295        -1.054603         2.544833
