19
Iteration:  4135
 C         3.731499         1.693026         2.865972
 C         3.035816         0.966609         1.667097
 O         3.391681        -0.427715         1.403718
 C         2.573001        -0.316030         0.149936
 C         2.723050         1.250076         0.205069
 C         1.592729         1.110574         1.319449
 C         1.140714        -0.323029         0.748965
 C        -0.006623        -0.141993        -0.185233
 O         0.827199        -1.332007         1.727806
 H         4.196679         0.931569         3.468457
 H         4.580003         2.252801         2.331266
 H         3.020550         2.374548         3.386231
 H         2.924303        -0.939460        -0.712369
 H         2.932213         2.071677        -0.506575
 H         1.239416         2.123265         1.740347
 H         0.179096         0.746238        -0.668758
 H        -0.128765        -0.947814        -0.953118
 H        -1.037866        -0.155851         0.285092
 H         1.526538        -1.441634         2.354348
