19
Iteration:  2097
 C         3.916639         1.832905         2.625236
 C         3.155723         0.881776         1.685291
 O         3.482749        -0.509157         1.358834
 C         2.495843        -0.357490         0.247065
 C         2.580071         1.262691         0.359445
 C         1.613477         0.975714         1.496998
 C         1.066779        -0.301472         0.812453
 C         0.145857         0.000649        -0.246202
 O         0.564082        -1.360184         1.627957
 H         4.212977         1.503091         3.627907
 H         4.829368         2.230558         2.096142
 H         3.232105         2.771174         2.819510
 H         2.821984        -1.022841        -0.497488
 H         2.792676         2.094206        -0.357520
 H         1.120180         1.685702         2.090067
 H         0.781475         0.624712        -0.989829
 H        -0.177038        -0.938785        -0.682030
 H        -0.818159         0.511469        -0.051288
 H         1.172618        -1.365748         2.476003
