19
Iteration:  1182
 C         4.004578         1.829130         2.494924
 C         3.144575         0.881752         1.710998
 O         3.398204        -0.490629         1.443012
 C         2.526069        -0.405339         0.280751
 C         2.619690         1.180019         0.347721
 C         1.593620         1.011819         1.566764
 C         1.132057        -0.273446         0.868284
 C         0.111056         0.001054        -0.358340
 O         0.547189        -1.293970         1.634928
 H         4.301602         1.493202         3.497957
 H         4.941618         2.225547         2.006776
 H         3.369636         2.748525         2.605913
 H         2.726254        -1.039480        -0.559308
 H         2.791831         2.024370        -0.283504
 H         1.143932         1.920330         2.192575
 H        -0.710526         0.523011         0.270755
 H         0.479132         0.554756        -1.261302
 H        -0.564565        -0.909534        -0.635427
 H         1.225571        -1.960779         2.074602
