19
Iteration:  4618charge 0 multiplicity 1
 C         3.663101         1.627717         2.835651
 C         3.013341         0.862423         1.714381
 O         3.343964        -0.543999         1.420695
 C         2.679792        -0.330166         0.132714
 C         2.815552         1.188864         0.258894
 C         1.582982         1.200767         1.252414
 C         1.141531        -0.157886         0.740615
 C        -0.060544        -0.325436        -0.160917
 O         0.827058        -1.057806         1.698642
 H         4.283019         2.380020         2.330534
 H         3.091983         2.112169         3.530959
 H         4.257396         0.978369         3.406743
 H         3.122305        -0.791915        -0.767366
 H         3.386787         1.808217        -0.491846
 H         0.999807         1.990895         1.669372
 H        -0.047463         0.428886        -1.130201
 H        -0.122050        -1.349902        -0.500093
 H        -0.880278        -0.062852         0.496430
 H         1.557353        -0.924341         2.344071
