19
Iteration:  1985charge 0 multiplicity 1
 C         3.724526         1.616333         2.876428
 C         3.092733         0.852594         1.667002
 O         3.403754        -0.555632         1.245937
 C         2.534052        -0.251972         0.024439
 C         2.782532         1.252938         0.284599
 C         1.649669         1.172749         1.234635
 C         1.100635        -0.205430         0.818024
 C        -0.133905        -0.214874        -0.093099
 O         0.851108        -1.174456         1.807221
 H         3.196966         1.225425         3.748154
 H         4.827023         1.367182         2.884051
 H         3.523130         2.647252         2.960333
 H         2.981750        -0.809994        -0.867852
 H         3.140855         2.211609        -0.194765
 H         1.109981         2.051268         1.828919
 H         0.092300         0.665623        -0.715869
 H        -0.175386        -1.054845        -0.840727
 H        -1.030328        -0.182692         0.388536
 H         1.670697        -1.374546         2.292205
