19
Iteration:  4048charge 0 multiplicity 1
 C         3.941094         1.731804         2.663713
 C         3.029888         0.950186         1.699570
 O         3.490101        -0.315793         1.393425
 C         2.569268        -0.346570         0.268960
 C         2.468704         1.256996         0.326773
 C         1.525151         1.003371         1.588491
 C         1.102936        -0.282085         0.830415
 C         0.120494        -0.108719        -0.366409
 O         0.701586        -1.413151         1.591493
 H         3.811543         1.589793         3.674001
 H         4.966733         1.455797         2.450827
 H         4.087560         2.772931         2.466382
 H         2.886868        -0.933559        -0.613486
 H         2.703835         2.071377        -0.299536
 H         0.876999         1.791435         2.000564
 H         0.544519         0.447102        -1.125460
 H         0.056245        -1.131937        -0.767486
 H        -0.922659         0.273092         0.013222
 H         1.241234        -1.401137         2.390077
