19
Iteration:  2931charge 0 multiplicity 1
 C         3.938617         1.705537         2.625486
 C         3.065628         0.886118         1.753144
 O         3.370898        -0.454122         1.376044
 C         2.520610        -0.289556         0.279993
 C         2.675734         1.248476         0.306534
 C         1.534438         1.092708         1.461881
 C         1.064649        -0.257143         0.826015
 C         0.032247        -0.055191        -0.300106
 O         0.773324        -1.396423         1.686581
 H         3.984052         1.558251         3.710907
 H         5.023867         1.629342         2.316042
 H         3.684255         2.826952         2.508913
 H         2.616759        -0.964113        -0.598543
 H         3.032155         1.893734        -0.531886
 H         0.870068         1.700626         1.978153
 H         0.352691         0.894934        -1.018792
 H        -0.132079        -1.004866        -0.879571
 H        -0.896913         0.291940         0.001196
 H         1.585015        -1.462698         2.167103
