19
Iteration:  2106
 C         3.893197         1.827621         2.636722
 C         3.141435         0.876609         1.677366
 O         3.453108        -0.546129         1.333835
 C         2.567922        -0.347092         0.242596
 C         2.610207         1.261298         0.349842
 C         1.577539         1.002819         1.426329
 C         1.098169        -0.328325         0.859931
 C         0.109519         0.006280        -0.248508
 O         0.601260        -1.339320         1.691207
 H         3.958512         1.269692         3.520752
 H         4.890938         2.185089         2.290664
 H         3.205813         2.642918         2.887388
 H         2.903056        -0.810786        -0.679713
 H         2.797474         2.117246        -0.247627
 H         0.821447         1.760215         1.761764
 H         0.610532         0.693573        -1.011172
 H        -0.200008        -0.804679        -0.860936
 H        -0.660999         0.520451         0.180959
 H         1.240575        -1.277392         2.511305
