19
Iteration:  3250charge 0 multiplicity 1
 C         3.866314         1.657731         2.724607
 C         3.121939         0.958286         1.665174
 O         3.386100        -0.466832         1.369925
 C         2.592900        -0.264693         0.166792
 C         2.615731         1.236300         0.287067
 C         1.611531         1.009581         1.433568
 C         1.113966        -0.188610         0.805222
 C         0.082100        -0.109901        -0.311470
 O         0.651424        -1.301071         1.792499
 H         4.061252         1.013855         3.642957
 H         4.855325         1.896761         2.360541
 H         3.393615         2.592705         2.894471
 H         2.802254        -0.850206        -0.716684
 H         2.618298         2.078719        -0.509420
 H         1.000261         1.648384         1.995894
 H         0.504349         0.238840        -1.342275
 H        -0.075032        -1.170375        -0.649440
 H        -0.770410         0.271877         0.034731
 H         1.367406        -1.283896         2.527175
