19
Iteration:  3878
 C         3.954158         1.800450         2.532305
 C         3.058909         0.966580         1.726551
 O         3.442931        -0.415056         1.450218
 C         2.507075        -0.340337         0.303486
 C         2.579653         1.217680         0.364509
 C         1.501481         1.011801         1.538430
 C         1.083074        -0.287601         0.806572
 C         0.123651        -0.065529        -0.371032
 O         0.705058        -1.403697         1.638368
 H         3.965780         1.201149         3.552827
 H         5.054764         1.874927         2.258022
 H         3.585179         2.854071         2.727668
 H         2.739779        -1.030240        -0.525952
 H         2.695199         1.954562        -0.387218
 H         0.839197         1.754197         1.897717
 H         0.795987         0.632512        -0.972845
 H        -0.159136        -1.008483        -0.882048
 H        -0.743489         0.423799        -0.004112
 H         1.571889        -1.464534         2.198519
