19
Iteration:  3980charge 0 multiplicity 1
 C         3.588324         1.520353         2.844793
 C         3.028347         0.906161         1.607266
 O         3.374200        -0.498207         1.471405
 C         2.563069        -0.296438         0.158861
 C         2.645042         1.296444         0.232594
 C         1.576030         1.175945         1.224490
 C         1.161921        -0.225336         0.756991
 C        -0.080310        -0.188871        -0.126731
 O         1.060935        -1.175995         1.694417
 H         3.170331         1.014283         3.758085
 H         4.683494         1.443877         2.676238
 H         3.475486         2.591979         2.698710
 H         2.930161        -1.029302        -0.567523
 H         3.157182         2.018867        -0.500304
 H         1.140777         1.891228         1.892307
 H         0.008607         0.762359        -0.740959
 H        -0.037991        -1.061135        -0.789616
 H        -0.884466        -0.135877         0.621593
 H         2.023227        -1.231027         2.001709
