19
Iteration:  4766
 C         3.999766         1.783632         2.575036
 C         3.016678         1.006679         1.715569
 O         3.275419        -0.407829         1.624740
 C         2.564010        -0.495782         0.381309
 C         2.738301         1.111519         0.294502
 C         1.547196         1.100789         1.263942
 C         1.086842        -0.296917         0.835425
 C         0.119584         0.043183        -0.339102
 O         0.669579        -1.370229         1.606678
 H         3.665551         1.728686         3.616301
 H         5.013551         1.243618         2.486330
 H         4.001983         2.910028         2.349893
 H         2.935573        -1.347811        -0.220123
 H         2.953679         1.750946        -0.594556
 H         0.918273         1.964519         1.360287
 H         0.666158         0.746843        -0.912851
 H        -0.172907        -0.895556        -0.929762
 H        -0.884926         0.377137         0.127681
 H         1.320048        -1.337297         2.387199
