19
Iteration:  2192charge 0 multiplicity 1
 C         3.775054         1.425973         2.843598
 C         3.101720         0.881316         1.637304
 O         3.389366        -0.522359         1.346319
 C         2.561295        -0.311720         0.134417
 C         2.718279         1.338478         0.322700
 C         1.532134         1.241293         1.254889
 C         1.072749        -0.131136         0.668631
 C        -0.072828        -0.338954        -0.204920
 O         0.912684        -1.022951         1.844043
 H         3.150650         1.271647         3.686128
 H         4.713002         0.852700         2.961544
 H         3.985573         2.482025         2.880461
 H         2.877376        -0.961985        -0.690080
 H         3.140628         2.093278        -0.415746
 H         0.891040         2.051904         1.699677
 H        -0.280208         0.363705        -1.095515
 H        -0.089296        -1.400293        -0.430140
 H        -0.849092        -0.354703         0.465445
 H         1.785155        -1.189860         2.095180
