19
Iteration:  2551
 C         4.022077         1.712479         2.598558
 C         3.026115         0.981886         1.722816
 O         3.445540        -0.446502         1.506055
 C         2.586154        -0.350650         0.267601
 C         2.498664         1.228799         0.327099
 C         1.503947         1.091932         1.479177
 C         1.172692        -0.297745         0.800221
 C         0.036021        -0.087356        -0.244327
 O         0.677065        -1.331650         1.546329
 H         4.138417         1.169755         3.558530
 H         5.089794         1.703344         2.176107
 H         3.453299         2.673841         2.919297
 H         2.988104        -0.955101        -0.517609
 H         2.745052         1.942800        -0.424892
 H         0.930881         1.969058         1.972345
 H         0.322824         0.797544        -0.988127
 H        -0.174835        -0.953016        -0.908264
 H        -0.752562         0.320866         0.293730
 H         1.558242        -1.839186         1.756429
