19
Iteration:  4029
 C         3.802384         1.713725         2.709930
 C         3.078935         0.949485         1.695819
 O         3.529780        -0.435500         1.348210
 C         2.610756        -0.240968         0.197905
 C         2.590327         1.277513         0.351536
 C         1.564395         1.051718         1.446323
 C         1.155874        -0.269106         0.828108
 C         0.049062        -0.197511        -0.244081
 O         0.675490        -1.332390         1.633308
 H         3.169919         1.584513         3.577959
 H         4.809174         1.303140         2.839639
 H         3.790059         2.810204         2.453632
 H         2.889317        -0.861656        -0.679926
 H         2.480174         2.059743        -0.360624
 H         0.862373         1.782010         1.977428
 H         0.340479         0.510837        -1.039673
 H        -0.062529        -1.214467        -0.638680
 H        -0.803620         0.277099         0.345318
 H         1.439459        -1.650073         2.077497
