19
Iteration:  2947
 C         4.021813         1.760630         2.537014
 C         3.086151         0.960134         1.678612
 O         3.448471        -0.481156         1.535462
 C         2.514022        -0.338928         0.222714
 C         2.514563         1.192719         0.386862
 C         1.553051         1.049007         1.541347
 C         1.071911        -0.255846         0.804402
 C         0.023971        -0.019818        -0.321511
 O         0.745713        -1.373486         1.565566
 H         3.761616         1.482888         3.575011
 H         4.984667         1.339047         2.338897
 H         3.867527         2.794328         2.394916
 H         2.964771        -0.965108        -0.524193
 H         2.594284         2.089935        -0.177426
 H         1.047424         1.984287         2.001827
 H         0.296041         0.729625        -0.923210
 H         0.103383        -0.866606        -1.011624
 H        -0.990316         0.061566         0.248947
 H         1.250813        -1.422785         2.354177
