19
Iteration:   966charge 0 multiplicity 1
 C         4.051306         1.744514         2.483881
 C         3.136866         0.866508         1.722594
 O         3.299312        -0.545619         1.507726
 C         2.570052        -0.338020         0.307837
 C         2.618723         1.247558         0.392358
 C         1.538529         1.093450         1.476413
 C         1.104929        -0.268983         0.785845
 C         0.005794        -0.030564        -0.315960
 O         0.681585        -1.274736         1.664124
 H         4.179522         1.455239         3.552289
 H         5.085453         1.821026         1.912988
 H         3.521902         2.743726         2.528194
 H         2.914391        -0.932356        -0.518636
 H         2.983490         2.102964        -0.206548
 H         0.831425         1.820288         1.780195
 H        -0.720408         0.752390        -0.190672
 H         0.473190         0.087155        -1.312593
 H        -0.386751        -1.140414        -0.448860
 H         1.515195        -1.628701         2.014734
