19
Iteration:  2517charge 0 multiplicity 1
 C         4.112988         1.777606         2.479628
 C         3.092814         0.900205         1.834048
 O         3.422628        -0.427475         1.472934
 C         2.515750        -0.305778         0.237502
 C         2.545673         1.215723         0.431260
 C         1.513829         1.083152         1.559990
 C         1.044200        -0.339212         0.801469
 C         0.158357        -0.063431        -0.375007
 O         0.595286        -1.439513         1.577638
 H         4.586532         1.462898         3.427654
 H         4.797091         2.389096         1.786849
 H         3.435928         2.609075         2.885197
 H         2.903254        -0.689236        -0.668591
 H         2.673481         2.008872        -0.234908
 H         0.980235         1.977520         1.910098
 H         0.609252         0.972774        -0.731490
 H         0.221819        -0.813724        -1.173291
 H        -0.850206        -0.015453        -0.082888
 H         0.959919        -1.529772         2.536226
