19
Iteration:  1411
 C         4.024724         1.796578         2.555686
 C         3.151549         0.906034         1.666211
 O         3.427299        -0.451370         1.412545
 C         2.521294        -0.419181         0.265284
 C         2.582091         1.121648         0.280639
 C         1.632060         1.052590         1.537074
 C         1.122467        -0.284793         0.908270
 C         0.116693         0.035202        -0.287363
 O         0.517374        -1.298908         1.638530
 H         3.851186         1.468826         3.590771
 H         5.127671         1.608192         2.228227
 H         3.811943         2.819644         2.438202
 H         2.891925        -1.133287        -0.576960
 H         2.516317         1.875635        -0.441152
 H         1.010021         1.887668         1.929598
 H        -1.004859        -0.153122         0.183192
 H         0.117429         1.068261        -0.593973
 H         0.262015        -0.561785        -1.165304
 H         0.903069        -1.643371         2.567729
