19
Iteration:  2844
 C         3.717453         1.397967         2.869441
 C         3.049833         0.903728         1.600464
 O         3.371023        -0.418828         1.322250
 C         2.567707        -0.300966         0.104371
 C         2.703595         1.284986         0.181632
 C         1.598087         1.176182         1.309934
 C         1.137629        -0.186872         0.794603
 C        -0.009944        -0.305864        -0.145433
 O         0.859973        -1.021712         1.817626
 H         3.435446         0.567375         3.479465
 H         4.790397         1.481712         2.642223
 H         3.393562         2.389971         3.246518
 H         2.775693        -0.970971        -0.742168
 H         3.117848         2.062629        -0.389443
 H         1.120296         1.886130         1.878066
 H         0.170713         0.509574        -0.956457
 H        -0.146148        -1.347799        -0.439241
 H        -0.883015        -0.083546         0.343608
 H         1.772802        -1.328035         2.199946
