19
Iteration:    82
 C         4.058311         1.712340         2.560690
 C         3.209058         0.928929         1.502294
 O         3.500970        -0.463474         1.431352
 C         2.482176        -0.480269         0.323640
 C         2.583597         1.149582         0.246766
 C         1.608648         1.088346         1.396972
 C         1.019527        -0.278436         0.944683
 C         0.131049        -0.010754        -0.242671
 O         0.449474        -1.228282         1.763815
 H         3.794388         1.446527         3.594248
 H         5.163562         1.691461         2.332878
 H         3.762855         2.790168         2.454780
 H         2.753846        -1.370447        -0.342745
 H         2.857161         1.852682        -0.547298
 H         1.094817         2.057241         1.852981
 H         0.311550         1.031582        -0.589610
 H         0.336096        -0.749152        -1.135216
 H        -1.005651        -0.074913         0.062056
 H         1.023726        -1.195586         2.495915
