19
Iteration:  2905
 C         3.763141         1.612486         2.737358
 C         3.083854         0.872745         1.644864
 O         3.382966        -0.530842         1.373490
 C         2.622442        -0.292100         0.130298
 C         2.634836         1.243149         0.267134
 C         1.587295         1.101308         1.367694
 C         1.121765        -0.186678         0.817170
 C         0.011275        -0.153172        -0.208077
 O         0.823390        -1.169476         1.766521
 H         3.872028         1.018985         3.662874
 H         4.854944         1.696458         2.558041
 H         3.324842         2.515621         3.079099
 H         2.713302        -0.766520        -0.821960
 H         2.810210         2.100775        -0.341350
 H         0.942817         1.969350         1.805638
 H         0.100209         0.430368        -1.093632
 H        -0.265063        -1.155668        -0.506221
 H        -0.830872         0.368032         0.463876
 H         1.698368        -1.610562         1.960360
