19
Iteration:  3967
 C         3.690494         1.522192         2.811377
 C         2.981286         0.960390         1.665286
 O         3.304529        -0.426742         1.402206
 C         2.610061        -0.296277         0.115202
 C         2.751666         1.268649         0.166700
 C         1.570428         1.198103         1.275006
 C         1.169459        -0.188622         0.728309
 C        -0.033705        -0.224716        -0.122495
 O         0.999314        -1.236399         1.774595
 H         3.339823         0.838192         3.725039
 H         4.790563         1.425099         2.956937
 H         3.184579         2.429347         3.233910
 H         2.781569        -1.085724        -0.612795
 H         3.243020         2.074642        -0.396921
 H         0.752703         1.900322         1.619847
 H        -0.273688         0.690374        -0.805651
 H        -0.180812        -1.139811        -0.715698
 H        -0.900389        -0.281172         0.439568
 H         1.947872        -1.374789         2.133355
