19
Iteration:  2604
 C         3.629985         1.516948         2.855693
 C         3.081129         0.844842         1.637265
 O         3.452221        -0.530536         1.289166
 C         2.554827        -0.280410         0.104427
 C         2.664600         1.238015         0.297073
 C         1.624877         1.108806         1.305540
 C         1.158037        -0.149951         0.774360
 C        -0.047192        -0.142963        -0.113608
 O         0.899330        -1.129910         1.779742
 H         3.031361         1.275864         3.730149
 H         4.724571         1.335918         3.023967
 H         3.651225         2.520016         2.418332
 H         2.988463        -0.630650        -0.772249
 H         2.785864         2.026242        -0.421938
 H         0.924299         1.903755         1.734202
 H        -0.057109         0.555637        -1.079759
 H        -0.124508        -1.209120        -0.363271
 H        -0.983247         0.051638         0.295350
 H         1.861983        -1.151200         2.087634
