19
Iteration:  4690charge 0 multiplicity 1
 C         3.835723         1.689859         2.679433
 C         3.144938         0.901834         1.593001
 O         3.408951        -0.436456         1.476163
 C         2.615165        -0.376113         0.268987
 C         2.638447         1.174535         0.260890
 C         1.562494         1.056376         1.402550
 C         1.129970        -0.244842         0.801058
 C         0.181058        -0.188465        -0.358464
 O         0.560487        -1.120985         1.755358
 H         3.147885         2.536651         2.888276
 H         3.966383         1.093220         3.691437
 H         4.947361         2.064927         2.527651
 H         2.885243        -1.194524        -0.416478
 H         2.682702         1.992649        -0.408398
 H         0.838104         1.731844         1.917564
 H         0.631010         0.405055        -1.104850
 H         0.139683        -1.178031        -0.841905
 H        -0.846949         0.198189        -0.076268
 H         1.215562        -1.151893         2.435794
