19
Iteration:  3170
 C         3.973363         1.757806         2.611058
 C         3.066932         0.987638         1.792218
 O         3.474528        -0.489890         1.473861
 C         2.518034        -0.350796         0.284896
 C         2.625242         1.207491         0.285056
 C         1.582558         1.083385         1.424085
 C         1.087707        -0.243580         0.832620
 C        -0.032973        -0.033623        -0.238275
 O         0.689718        -1.424934         1.528345
 H         3.759492         1.770879         3.629946
 H         5.023586         1.528415         2.410578
 H         3.853412         2.835072         2.323749
 H         2.834733        -1.135931        -0.440917
 H         2.839329         1.866675        -0.468153
 H         1.020330         1.995363         1.854184
 H         0.038612         1.032906        -0.674829
 H         0.094281        -0.908667        -0.866987
 H        -0.990187        -0.005167         0.151038
 H         1.460259        -1.517112         2.232661
