19
Iteration:  4464charge 0 multiplicity 1
 C         3.762948         1.692503         2.830584
 C         3.088148         0.988308         1.595802
 O         3.378715        -0.435867         1.422747
 C         2.599798        -0.456267         0.263973
 C         2.554432         1.182112         0.156030
 C         1.588912         1.075758         1.323149
 C         1.173880        -0.288744         0.816000
 C         0.044513        -0.048930        -0.304070
 O         0.833279        -1.242879         1.749476
 H         4.370873         1.027918         3.437583
 H         4.424687         2.502839         2.617297
 H         3.069115         2.174975         3.529264
 H         2.958995        -1.381865        -0.236786
 H         2.759753         2.033085        -0.523058
 H         0.949792         1.901640         1.765713
 H         0.264824         0.882429        -0.846434
 H        -0.096486        -0.811086        -1.044863
 H        -1.003480        -0.016647         0.149143
 H         1.575949        -1.457309         2.300934
