19
Iteration:  2249
 C         3.879599         1.670951         2.706141
 C         3.131312         0.955394         1.622151
 O         3.443213        -0.506566         1.431484
 C         2.545620        -0.346828         0.236419
 C         2.570782         1.163106         0.250361
 C         1.594446         1.150236         1.446808
 C         1.066875        -0.230168         0.865756
 C         0.059197        -0.065780        -0.218276
 O         0.705534        -1.286839         1.640545
 H         3.654511         1.271099         3.670862
 H         4.948294         1.627715         2.592643
 H         3.610415         2.769464         2.581933
 H         2.806622        -1.061294        -0.541278
 H         2.754786         1.700485        -0.751417
 H         1.063336         1.935220         1.922273
 H         0.477636         0.604748        -1.025381
 H        -0.128852        -0.989355        -0.712801
 H        -0.782682         0.473592         0.073540
 H         1.454452        -1.468988         2.213243
