19
Iteration:  4246
 C         3.975622         1.665008         2.700091
 C         3.021619         1.004959         1.723056
 O         3.365936        -0.415251         1.434476
 C         2.539283        -0.245622         0.203532
 C         2.571034         1.334162         0.350611
 C         1.479374         1.102744         1.308785
 C         1.127851        -0.346505         0.844811
 C         0.093144        -0.243767        -0.335479
 O         0.802587        -1.364521         1.692582
 H         3.414865         1.948275         3.596623
 H         4.793444         1.030056         3.092976
 H         4.439250         2.678518         2.497804
 H         2.710941        -0.920594        -0.643639
 H         2.750376         2.116632        -0.351901
 H         0.858201         1.863289         1.782300
 H         0.471107         0.484139        -0.965767
 H        -0.165895        -1.123060        -0.871592
 H        -0.816306         0.274375         0.120177
 H         1.564134        -1.396311         2.251038
