19
Iteration:  3285
 C         3.787252         1.473877         2.897046
 C         3.034310         0.952015         1.655191
 O         3.543108        -0.444124         1.285658
 C         2.570457        -0.291488         0.181091
 C         2.683181         1.239794         0.224276
 C         1.506790         1.161508         1.275031
 C         1.094463        -0.156650         0.788717
 C        -0.019657        -0.263038        -0.274755
 O         0.801361        -1.105767         1.828646
 H         3.508903         0.778300         3.733202
 H         4.868012         1.622633         2.667157
 H         3.372112         2.419936         3.300450
 H         2.759862        -0.977876        -0.646757
 H         3.058088         1.856077        -0.595263
 H         0.988085         1.986371         1.856002
 H        -0.109498         0.419625        -1.094411
 H        -0.044369        -1.346969        -0.414704
 H        -0.988445        -0.159251         0.222533
 H         1.615375        -1.445989         2.263860
