19
Iteration:  2733
 C         3.923572         1.812813         2.490605
 C         3.107276         0.911971         1.713022
 O         3.446972        -0.472783         1.474834
 C         2.561847        -0.373801         0.310710
 C         2.539922         1.211670         0.305055
 C         1.675250         1.017605         1.574609
 C         1.104924        -0.286130         0.842819
 C         0.144588         0.069395        -0.188525
 O         0.563527        -1.457937         1.512627
 H         3.935368         1.538500         3.548950
 H         4.957569         1.962947         2.036272
 H         3.451969         2.786562         2.545623
 H         2.880935        -1.008120        -0.500832
 H         2.615719         1.995572        -0.537405
 H         1.080690         1.953885         2.032853
 H         0.537040         0.742444        -1.056836
 H        -0.106728        -0.740412        -0.854106
 H        -0.816303         0.428765         0.101680
 H         1.019722        -1.411544         2.394250
