19
Iteration:    38charge 0 multiplicity 1
 C         4.101547         1.695619         2.356772
 C         3.186066         0.861917         1.633165
 O         3.272804        -0.522406         1.582151
 C         2.501432        -0.419445         0.361310
 C         2.705229         1.156636         0.354806
 C         1.549493         1.152061         1.416785
 C         1.089453        -0.221106         0.778867
 C        -0.005649        -0.061110        -0.279263
 O         0.621175        -1.206429         1.757782
 H         4.050334         1.422446         3.410145
 H         5.204738         1.677383         1.972019
 H         3.830667         2.747581         2.205417
 H         2.837792        -1.107938        -0.439212
 H         3.260435         1.867971        -0.281935
 H         0.909995         2.060188         1.617009
 H        -0.518848         0.949060        -0.084805
 H         0.382312        -0.103177        -1.414058
 H        -0.860106        -0.771983        -0.052992
 H         1.471808        -1.326796         2.258459
