19
Iteration:  3547
 C         3.783611         1.580696         2.922110
 C         3.023259         0.935558         1.648978
 O         3.338561        -0.467539         1.296706
 C         2.606564        -0.183865         0.098802
 C         2.724672         1.295802         0.249088
 C         1.602938         1.132649         1.279616
 C         1.147259        -0.258733         0.760659
 C        -0.012717        -0.318671        -0.141157
 O         0.825720        -1.176241         1.787202
 H         3.146911         1.533174         3.775133
 H         4.649403         0.985528         3.067545
 H         4.078791         2.644172         2.753272
 H         3.085346        -0.716243        -0.784563
 H         2.949604         2.007539        -0.649886
 H         1.025213         1.934662         1.632535
 H        -0.002257         0.263203        -1.023159
 H        -0.319412        -1.351071        -0.269143
 H        -0.903376         0.213641         0.396580
 H         1.570993        -1.674804         2.024266
