19
Iteration:  2333
 C         3.994349         1.666340         2.671361
 C         3.143120         0.987869         1.662782
 O         3.383014        -0.469036         1.427401
 C         2.541364        -0.299113         0.255209
 C         2.551852         1.181632         0.286258
 C         1.572559         1.110460         1.372535
 C         1.054016        -0.262110         0.912271
 C         0.097348        -0.064384        -0.312901
 O         0.639564        -1.321643         1.705789
 H         4.192293         1.047675         3.514947
 H         4.904971         2.099647         2.196785
 H         3.367285         2.451561         3.077078
 H         2.821613        -0.989653        -0.509841
 H         2.831628         1.925044        -0.540311
 H         1.243043         1.872161         1.982499
 H         0.430677         0.827936        -1.007295
 H         0.190110        -0.987023        -0.928253
 H        -0.930489        -0.046516        -0.118385
 H         1.537737        -1.664817         2.122513
