19
Iteration:   355
 C         3.776468         1.540252         2.714613
 C         3.137518         0.823702         1.629312
 O         3.484410        -0.500127         1.296679
 C         2.562926        -0.222711         0.134834
 C         2.614597         1.283472         0.284462
 C         1.607425         1.088509         1.297403
 C         1.087097        -0.208556         0.871044
 C        -0.048283        -0.115192        -0.221713
 O         0.780486        -1.184243         1.890465
 H         3.516019         1.208528         3.658881
 H         4.861641         1.341902         2.702645
 H         3.401106         2.574174         2.664810
 H         2.880925        -0.786951        -0.776770
 H         3.059422         2.037483        -0.423660
 H         1.107277         1.850946         1.774819
 H        -0.765714         0.649590        -0.111917
 H         0.393037        -0.111462        -1.195728
 H        -0.604435        -1.078444        -0.193078
 H         1.477303        -1.273619         2.472473
