19
Iteration:  4911charge 0 multiplicity 1
 C         3.870337         1.759190         2.652235
 C         3.003583         0.931911         1.697645
 O         3.210295        -0.571928         1.613738
 C         2.621848        -0.424741         0.323782
 C         2.879222         1.125572         0.258584
 C         1.592097         1.157379         1.276587
 C         1.085268        -0.219076         0.727227
 C         0.021271        -0.183546        -0.312552
 O         0.739942        -1.136474         1.667172
 H         4.070616         1.391741         3.752391
 H         4.818919         1.961937         2.124800
 H         3.327501         2.721623         2.782828
 H         2.891803        -1.267329        -0.306986
 H         3.381746         1.766227        -0.424448
 H         1.067209         2.063947         1.700680
 H         0.309496         0.515877        -1.302001
 H        -0.463188        -1.102431        -0.571797
 H        -0.750314         0.419206         0.213003
 H         1.665165        -1.167312         2.145734
