19
Iteration:   712
 C         4.021569         1.710423         2.516199
 C         3.110698         0.969817         1.700212
 O         3.349062        -0.427044         1.526927
 C         2.545257        -0.367360         0.305621
 C         2.602591         1.154871         0.305704
 C         1.562182         1.144911         1.411894
 C         1.091758        -0.272017         0.841540
 C         0.056409         0.013396        -0.202814
 O         0.644124        -1.407138         1.564795
 H         4.225100         1.325769         3.568927
 H         4.958327         1.501140         2.035462
 H         4.013101         2.837908         2.629661
 H         2.978410        -0.960611        -0.467811
 H         2.908643         1.801872        -0.536221
 H         0.954287         1.778253         2.165550
 H        -1.005652         0.148133         0.233440
 H         0.176747         0.857129        -0.961922
 H         0.186675        -0.914342        -0.860302
 H         1.232537        -1.546029         2.273703
