19
Iteration:  1390charge 0 multiplicity 1
 C         3.996539         1.806644         2.451494
 C         3.104137         0.867403         1.756815
 O         3.467902        -0.532309         1.462558
 C         2.564444        -0.387596         0.268778
 C         2.648399         1.195969         0.400031
 C         1.560386         1.096938         1.457968
 C         1.031280        -0.298026         0.798462
 C         0.048926         0.065835        -0.245076
 O         0.545052        -1.317081         1.660415
 H         4.223910         1.429676         3.459175
 H         4.954618         1.908157         1.777405
 H         3.577482         2.759501         2.469076
 H         2.881538        -1.207682        -0.508420
 H         3.147446         1.859355        -0.258390
 H         1.095852         1.891800         1.998955
 H        -0.992074         0.071988         0.221831
 H         0.500600         0.850056        -0.805572
 H        -0.017723        -0.773125        -0.905731
 H         1.375917        -1.637218         2.015541
