19
Iteration:  3692charge 0 multiplicity 1
 C         3.830036         1.695416         2.666311
 C         3.023447         0.885656         1.676906
 O         3.424384        -0.471948         1.465763
 C         2.537299        -0.375232         0.262223
 C         2.645160         1.198431         0.305846
 C         1.542699         1.152145         1.410559
 C         1.098728        -0.256068         0.783029
 C         0.016402        -0.099463        -0.281017
 O         0.861770        -1.231986         1.692987
 H         4.057776         0.965950         3.405800
 H         4.794608         2.014466         2.235076
 H         3.253331         2.500697         3.008499
 H         2.875591        -1.158661        -0.424665
 H         2.868543         1.915635        -0.485854
 H         0.885257         1.969015         1.819592
 H         0.223544         0.701800        -1.075544
 H        -0.167088        -0.965267        -0.931043
 H        -1.015855         0.190483         0.178241
 H         1.737488        -1.547367         1.935834
