19
Iteration:   489charge 0 multiplicity 1
 C         3.984042         1.756359         2.596112
 C         3.143198         1.012989         1.617109
 O         3.476965        -0.489338         1.384141
 C         2.577840        -0.443455         0.331999
 C         2.503426         1.145885         0.302670
 C         1.584722         1.033063         1.502177
 C         1.112752        -0.266369         0.889640
 C         0.137715        -0.003705        -0.265579
 O         0.509831        -1.268842         1.655649
 H         4.127171         1.296705         3.520970
 H         5.044948         1.653359         2.181552
 H         3.817662         2.855420         2.607617
 H         2.806757        -1.072933        -0.526461
 H         2.495394         1.755906        -0.589855
 H         0.949691         2.002936         1.805753
 H        -0.859486        -0.437030        -0.000195
 H         0.185080         1.081718        -0.293881
 H         0.265458        -0.494309        -1.253377
 H         1.262608        -1.597699         2.311434
