19
Iteration:  3155
 C         3.867439         1.733725         2.653067
 C         3.067469         0.868870         1.659183
 O         3.432962        -0.446646         1.391219
 C         2.561675        -0.336942         0.237176
 C         2.669571         1.189910         0.316857
 C         1.550351         1.196067         1.415915
 C         1.076146        -0.281380         0.842043
 C         0.040056        -0.057522        -0.237699
 O         0.726072        -1.373531         1.667366
 H         3.673797         1.404176         3.721795
 H         4.906375         1.331626         2.588497
 H         3.894837         2.794648         2.420500
 H         2.773631        -0.862513        -0.708454
 H         3.132766         2.041455        -0.350659
 H         0.992988         1.971034         1.886924
 H         0.189359         0.810481        -0.723096
 H         0.009762        -0.702254        -1.120565
 H        -1.015479        -0.183225         0.339677
 H         1.317426        -1.506256         2.454316
