19
Iteration:  1129
 C         3.932117         1.698588         2.623563
 C         3.127285         0.978359         1.665471
 O         3.436354        -0.461002         1.404616
 C         2.560698        -0.408745         0.232734
 C         2.640068         1.265332         0.260055
 C         1.656453         0.985871         1.447111
 C         1.071254        -0.256014         0.861919
 C         0.060393        -0.044930        -0.245237
 O         0.603582        -1.273860         1.685381
 H         3.702432         1.288966         3.592634
 H         4.995735         1.533303         2.222078
 H         3.823844         2.706829         2.882813
 H         2.819879        -1.102658        -0.586708
 H         2.571496         2.053760        -0.439666
 H         0.903719         1.703435         1.979494
 H        -0.726305         0.570654         0.023734
 H         0.369713         0.345648        -1.252471
 H        -0.214828        -1.122000        -0.599141
 H         0.951586        -1.109702         2.675232
