19
Iteration:  2684
 C         3.921250         1.600093         2.744248
 C         3.103386         0.921132         1.699138
 O         3.363462        -0.501367         1.396433
 C         2.575610        -0.225927         0.139758
 C         2.708842         1.242018         0.309192
 C         1.517680         1.148021         1.317314
 C         1.058720        -0.192694         0.815889
 C         0.000781        -0.229832        -0.270894
 O         0.768907        -1.237416         1.785676
 H         3.876684         0.930946         3.636493
 H         4.923456         1.799364         2.378719
 H         3.552151         2.597646         3.101727
 H         2.731791        -0.884012        -0.755227
 H         2.894122         2.088257        -0.316569
 H         0.933718         1.886866         1.732230
 H         0.309655         0.531964        -0.948611
 H        -0.163847        -1.113639        -0.919813
 H        -1.008083         0.097136         0.061231
 H         1.610802        -1.532528         2.149714
