19
Iteration:  4373charge 0 multiplicity 1
 C         3.854815         1.573791         2.768045
 C         3.001768         0.947179         1.715339
 O         3.315605        -0.401055         1.414127
 C         2.533945        -0.226130         0.243357
 C         2.675834         1.321821         0.240265
 C         1.470545         1.190319         1.212253
 C         1.154853        -0.273673         0.817805
 C         0.064569        -0.248433        -0.329812
 O         0.882403        -1.289861         1.815921
 H         3.434182         1.425418         3.723478
 H         4.834759         1.003267         2.835364
 H         4.159516         2.604492         2.670362
 H         2.721100        -0.932256        -0.581223
 H         2.973556         2.145798        -0.359731
 H         0.880849         1.853736         1.815212
 H         0.441374         0.218285        -1.267342
 H        -0.089177        -1.395048        -0.505691
 H        -0.948535         0.063653         0.084052
 H         1.759287        -1.608071         1.985828
