19
Iteration:  4318
 C         3.779675         1.923947         2.607843
 C         3.081911         0.909753         1.698737
 O         3.513981        -0.442920         1.425554
 C         2.590546        -0.349383         0.222729
 C         2.751798         1.197260         0.325831
 C         1.598243         1.051952         1.519756
 C         1.108216        -0.365281         0.773525
 C         0.030783        -0.097064        -0.164071
 O         0.606177        -1.402165         1.563578
 H         3.180272         2.318227         3.400695
 H         4.666044         1.562684         3.205039
 H         4.139851         2.817903         2.143113
 H         2.941695        -1.044259        -0.567330
 H         2.929821         2.121323        -0.193721
 H         0.909842         1.886589         1.860152
 H         0.124680         0.972539        -0.655181
 H         0.063341        -0.830937        -1.066417
 H        -1.050126        -0.171802         0.166969
 H         1.294635        -1.642643         2.152579
