19
Iteration:  2162charge 0 multiplicity 1
 C         3.773965         1.478938         2.897658
 C         3.075069         0.930502         1.711448
 O         3.261399        -0.483526         1.376441
 C         2.529986        -0.247375         0.076837
 C         2.786283         1.259770         0.167002
 C         1.641800         1.327271         1.254409
 C         1.076802        -0.163516         0.726213
 C        -0.073304        -0.292089        -0.150462
 O         0.897373        -1.239479         1.809500
 H         3.393668         1.013160         3.768273
 H         4.804887         1.122119         2.903432
 H         3.835925         2.616099         2.939394
 H         2.879774        -0.803956        -0.749258
 H         3.269330         1.898605        -0.675132
 H         1.202527         2.231096         1.486865
 H        -0.163137         0.509354        -0.931511
 H         0.032957        -1.288535        -0.510324
 H        -0.934121        -0.371450         0.462053
 H         1.821207        -1.140630         2.217739
