19
Iteration:  1130charge 0 multiplicity 1
 C         3.928411         1.700675         2.616518
 C         3.130417         0.976056         1.670491
 O         3.444701        -0.468235         1.406011
 C         2.557230        -0.404323         0.235197
 C         2.637655         1.268935         0.257426
 C         1.653223         0.986409         1.459575
 C         1.073940        -0.257951         0.853760
 C         0.065435        -0.042879        -0.241326
 O         0.596797        -1.274906         1.686784
 H         3.710900         1.296805         3.612385
 H         4.998253         1.557871         2.191357
 H         3.810160         2.714687         2.865608
 H         2.804628        -1.143806        -0.598646
 H         2.554574         2.081098        -0.454849
 H         0.895756         1.683191         1.974736
 H        -0.707281         0.582834         0.026713
 H         0.406798         0.335522        -1.266088
 H        -0.223516        -1.110123        -0.617248
 H         0.945541        -1.099257         2.647807
