19
Iteration:  1480charge 0 multiplicity 1
 C         3.878719         1.550039         2.700300
 C         3.097209         0.870989         1.657684
 O         3.257125        -0.594570         1.447675
 C         2.557717        -0.323012         0.124929
 C         2.724781         1.251690         0.358607
 C         1.584707         1.204254         1.288078
 C         1.130422        -0.178085         0.728052
 C        -0.107411        -0.191570        -0.203328
 O         0.898451        -1.075958         1.803764
 H         3.411441         1.261713         3.689822
 H         4.957739         1.267374         2.603997
 H         3.940155         2.696584         2.505596
 H         2.796641        -1.062996        -0.661226
 H         2.985706         1.972978        -0.482700
 H         1.041599         1.892598         1.972353
 H        -0.892845        -0.763591         0.265010
 H        -0.530122         0.824928        -0.654990
 H         0.087633        -0.755083        -1.204977
 H         1.733954        -1.080484         2.181960
