19
Iteration:  3864
 C         3.927335         1.797234         2.587054
 C         3.024040         0.939851         1.699821
 O         3.471987        -0.401059         1.571586
 C         2.568199        -0.356088         0.258852
 C         2.550480         1.169664         0.288693
 C         1.558256         1.031163         1.500082
 C         1.126302        -0.281033         0.868981
 C         0.068474        -0.018302        -0.266457
 O         0.709424        -1.388169         1.505547
 H         3.932826         1.515997         3.628803
 H         4.869973         1.603093         2.019084
 H         3.681529         2.882532         2.351801
 H         2.961406        -1.089470        -0.487184
 H         2.612810         2.092360        -0.414435
 H         0.984700         1.749984         2.069720
 H         0.306630         0.549247        -1.038507
 H        -0.102455        -0.948217        -0.734129
 H        -0.964547         0.302369         0.115971
 H         1.352023        -1.689626         2.101822
