19
Iteration:  3052charge 0 multiplicity 1
 C         3.804252         1.529319         2.815650
 C         3.087021         0.939708         1.732015
 O         3.453244        -0.468770         1.358403
 C         2.562542        -0.346728         0.139307
 C         2.724252         1.291844         0.310644
 C         1.555033         1.167728         1.193220
 C         1.041108        -0.193558         0.749279
 C        -0.131080        -0.213137        -0.215814
 O         0.870855        -1.170958         1.789258
 H         3.843091         0.715178         3.578727
 H         4.842520         1.857665         2.593775
 H         3.377142         2.411400         3.390142
 H         2.861134        -1.065478        -0.649091
 H         2.952927         1.936941        -0.519544
 H         1.021306         1.885004         1.910616
 H         0.118329         0.504209        -1.106702
 H        -0.456127        -1.258211        -0.322177
 H        -0.920952         0.292260         0.173818
 H         1.874951        -1.405030         1.978707
