19
Iteration:  4193charge 0 multiplicity 1
 C         3.703596         1.499990         2.898771
 C         3.063251         0.928286         1.642022
 O         3.355404        -0.445759         1.277348
 C         2.585594        -0.254662         0.086949
 C         2.734559         1.338075         0.302117
 C         1.503840         1.141883         1.230433
 C         1.168335        -0.217583         0.749698
 C        -0.043108        -0.320978        -0.168111
 O         0.926734        -1.172713         1.834492
 H         3.153984         1.271348         3.822811
 H         4.745955         1.473520         3.119784
 H         3.530561         2.610324         2.905980
 H         2.906834        -0.817935        -0.791937
 H         3.112110         2.163393        -0.276080
 H         0.979359         1.963958         1.697871
 H         0.166331         0.154921        -1.220502
 H         0.126711        -1.364899        -0.383086
 H        -1.111504        -0.024015         0.103702
 H         1.700898        -1.177160         2.408837
