19
Iteration:  1698
 C         3.716656         1.471599         2.865783
 C         3.088618         0.846565         1.647488
 O         3.484984        -0.479571         1.234868
 C         2.561700        -0.230790         0.062248
 C         2.741330         1.339331         0.268945
 C         1.630647         1.123609         1.301692
 C         1.130264        -0.274742         0.799482
 C        -0.094450        -0.175190        -0.153237
 O         0.787828        -1.127184         1.849572
 H         3.638455         0.865770         3.781634
 H         4.744239         1.685031         2.781961
 H         3.180907         2.470544         2.973505
 H         2.789766        -0.794751        -0.814838
 H         3.007193         2.037152        -0.559801
 H         1.008232         1.894540         1.985533
 H         0.275364        -0.069916        -1.148046
 H        -0.721296        -1.173872         0.021762
 H        -0.757310         0.741613        -0.042467
 H         1.594283        -1.414312         2.241078
