19
Iteration:  2515charge 0 multiplicity 1
 C         4.110966         1.794552         2.491854
 C         3.092352         0.901315         1.814477
 O         3.427344        -0.447736         1.464653
 C         2.511254        -0.308064         0.250045
 C         2.533074         1.207801         0.449760
 C         1.527539         1.109744         1.561297
 C         1.035980        -0.351573         0.795003
 C         0.174244        -0.061739        -0.379962
 O         0.598729        -1.433224         1.578171
 H         4.602502         1.438714         3.422396
 H         4.765220         2.396913         1.856366
 H         3.465593         2.591309         2.814587
 H         2.897861        -0.640090        -0.717665
 H         2.665367         2.038715        -0.259167
 H         0.973157         1.914050         1.912867
 H         0.568451         0.924542        -0.688707
 H         0.203876        -0.814380        -1.148157
 H        -0.912710        -0.032334        -0.115185
 H         0.937059        -1.506849         2.538642
