19
Iteration:  3987
 C         3.613746         1.595202         2.832682
 C         3.045590         0.872503         1.625728
 O         3.401932        -0.506151         1.423187
 C         2.573469        -0.308079         0.173871
 C         2.706354         1.261202         0.241260
 C         1.550877         1.144479         1.270372
 C         1.137441        -0.220056         0.746817
 C        -0.070146        -0.174609        -0.132475
 O         1.048408        -1.195630         1.701822
 H         3.106752         1.307251         3.853593
 H         4.653990         1.161011         2.833417
 H         3.292913         2.682595         2.785242
 H         2.970211        -0.756255        -0.738806
 H         2.803530         2.032652        -0.487606
 H         1.099079         2.083355         1.761853
 H        -0.141054         0.775348        -0.761363
 H        -0.215258        -1.032979        -0.816724
 H        -1.001150        -0.039460         0.386105
 H         1.963824        -1.300567         2.167515
