19
Iteration:  3592
 C         3.992418         1.707093         2.761836
 C         3.043047         0.952629         1.671520
 O         3.354782        -0.455876         1.398867
 C         2.554610        -0.279590         0.187500
 C         2.558291         1.222593         0.310384
 C         1.523034         1.087930         1.438678
 C         1.103443        -0.281956         0.807450
 C         0.079687        -0.137019        -0.362210
 O         0.820481        -1.349636         1.747910
 H         3.445704         2.004567         3.582241
 H         4.843615         1.093600         2.936790
 H         4.267600         2.632812         2.240380
 H         2.641219        -0.846843        -0.750740
 H         2.575175         2.049967        -0.437576
 H         0.819141         1.735856         1.984702
 H         0.425920         0.571915        -1.021599
 H        -0.084128        -1.086861        -0.836025
 H        -1.004812         0.344942        -0.154840
 H         1.428375        -1.144427         2.416316
