19
Iteration:  2123charge 0 multiplicity 1
 C         3.801773         1.638707         2.711108
 C         3.029170         0.904115         1.681711
 O         3.476112        -0.463148         1.392181
 C         2.614912        -0.336825         0.137482
 C         2.647308         1.167892         0.277740
 C         1.563162         1.062916         1.392023
 C         1.157259        -0.253984         0.764477
 C         0.027257         0.003875        -0.239874
 O         0.716118        -1.258181         1.771286
 H         3.853101         1.179294         3.770596
 H         4.789083         1.822946         2.283661
 H         3.335550         2.617465         2.916365
 H         2.915989        -1.103027        -0.640215
 H         2.877071         1.921997        -0.468102
 H         1.012616         1.902845         1.898907
 H         0.300058         0.755904        -0.935791
 H        -0.324534        -0.954058        -0.763384
 H        -1.018263         0.284956         0.268692
 H         1.510914        -1.396381         2.442292
