19
Iteration:   567charge 0 multiplicity 1
 C         3.935862         1.589453         2.650066
 C         3.033805         0.919619         1.729340
 O         3.306200        -0.518072         1.448388
 C         2.540427        -0.283226         0.172054
 C         2.782808         1.198740         0.208913
 C         1.559619         1.186298         1.409475
 C         1.092536        -0.245236         0.740875
 C        -0.086657        -0.148013        -0.189427
 O         0.830748        -1.229730         1.745240
 H         3.847290         1.336017         3.765110
 H         5.016103         1.583678         2.451762
 H         3.573836         2.599462         2.561650
 H         2.959277        -1.039068        -0.564885
 H         2.764643         2.063905        -0.464162
 H         1.072314         2.042633         1.832697
 H        -0.965786         0.430478         0.297777
 H         0.268980         0.540043        -1.104632
 H        -0.239431        -1.098259        -0.662483
 H         1.622605        -1.375411         2.221618
