19
Iteration:  4439charge 0 multiplicity 1
 C         3.653581         1.574389         2.805680
 C         3.052138         0.935768         1.628804
 O         3.525820        -0.418522         1.355336
 C         2.572261        -0.285586         0.167571
 C         2.705219         1.186341         0.224238
 C         1.582549         1.119616         1.254105
 C         1.128380        -0.233757         0.825262
 C         0.055140        -0.246743        -0.220444
 O         0.748843        -1.127130         1.818444
 H         3.990548         0.793802         3.386745
 H         4.548707         2.235040         2.811163
 H         2.898238         2.050087         3.427242
 H         3.029440        -0.890621        -0.604662
 H         2.849797         1.974274        -0.537221
 H         1.076298         1.947175         1.655185
 H         0.255669         0.472031        -0.969023
 H        -0.187058        -1.249968        -0.712141
 H        -0.981148        -0.024499         0.270611
 H         1.553802        -1.435427         2.351525
