19
Iteration:  1354charge 0 multiplicity 1
 C         3.997535         1.705564         2.613207
 C         3.096703         0.905705         1.669217
 O         3.262731        -0.526063         1.489339
 C         2.496120        -0.383880         0.198831
 C         2.696048         1.209524         0.311039
 C         1.595522         1.115649         1.389301
 C         1.072007        -0.223117         0.791237
 C         0.003845        -0.040885        -0.200172
 O         0.776521        -1.286503         1.661227
 H         4.256126         1.052040         3.450079
 H         4.981332         1.884615         2.166867
 H         3.614153         2.689237         3.036018
 H         2.875851        -1.147616        -0.478006
 H         2.880212         1.991555        -0.489503
 H         1.062941         2.076649         1.947138
 H        -0.884074         0.745309        -0.002396
 H         0.377475         0.279243        -1.168720
 H        -0.415326        -1.054298        -0.349870
 H         1.537740        -1.250375         2.294306
