19
Iteration:  4765charge 0 multiplicity 1
 C         4.003290         1.789091         2.574193
 C         3.011971         1.003120         1.721564
 O         3.275446        -0.411606         1.632186
 C         2.572201        -0.497773         0.374411
 C         2.723411         1.115769         0.281059
 C         1.554293         1.096828         1.274988
 C         1.088232        -0.296442         0.831481
 C         0.127747         0.050031        -0.337138
 O         0.665707        -1.371655         1.603933
 H         3.663109         1.760031         3.586659
 H         5.024839         1.260879         2.520024
 H         4.017828         2.881804         2.335606
 H         2.941455        -1.351579        -0.226306
 H         2.914870         1.722741        -0.604313
 H         0.926850         1.991091         1.397388
 H         0.656538         0.735923        -0.928048
 H        -0.179483        -0.920993        -0.953851
 H        -0.898729         0.385281         0.128610
 H         1.306275        -1.331092         2.412954
