19
Iteration:   170
 C         3.971866         1.510993         2.811766
 C         3.057656         0.982793         1.609447
 O         3.243238        -0.507732         1.481961
 C         2.500837        -0.384161         0.217762
 C         2.733731         1.209020         0.150054
 C         1.599639         1.265122         1.124331
 C         1.122157        -0.148818         0.752557
 C        -0.065251        -0.206311        -0.116051
 O         0.874343        -1.140925         1.769215
 H         3.802738         0.986932         3.766813
 H         4.939495         1.187862         2.550487
 H         3.736131         2.575509         3.047928
 H         2.682325        -1.301948        -0.469755
 H         3.042725         1.816319        -0.664608
 H         0.903244         1.987584         1.625800
 H         0.087875        -0.632059        -1.079674
 H        -0.848061        -0.701961         0.468044
 H        -0.558082         0.764185        -0.120865
 H         1.697303        -1.303804         2.339562
