19
Iteration:  4407
 C         3.797096         1.592694         2.881123
 C         3.030415         0.885012         1.725512
 O         3.376337        -0.442445         1.331978
 C         2.534820        -0.228407         0.134266
 C         2.783541         1.306592         0.297714
 C         1.570166         1.130609         1.298981
 C         1.130415        -0.182740         0.667064
 C        -0.032518        -0.448675        -0.298539
 O         0.848067        -1.088404         1.806900
 H         3.646606         0.983114         3.688817
 H         4.852215         1.621115         2.580791
 H         3.274309         2.538124         3.045573
 H         2.885547        -0.898685        -0.655962
 H         2.984298         2.206503        -0.324559
 H         1.006094         1.809443         1.879039
 H         0.033907        -0.164030        -1.295048
 H        -0.037616        -1.588421        -0.230396
 H        -1.024473         0.028270         0.137952
 H         1.440602        -0.958772         2.558118
