19
Iteration:  3640charge 0 multiplicity 1
 C         3.948526         1.900151         2.627883
 C         3.109635         0.914080         1.687787
 O         3.582564        -0.440647         1.498452
 C         2.591231        -0.347119         0.268283
 C         2.567608         1.138998         0.311281
 C         1.603211         1.027228         1.524743
 C         1.054392        -0.286523         0.801214
 C        -0.025451        -0.035863        -0.276584
 O         0.596422        -1.384810         1.535602
 H         3.573698         1.840627         3.720515
 H         4.962525         1.444688         2.522444
 H         3.854829         2.872435         2.179883
 H         2.948721        -1.134863        -0.372240
 H         2.700577         1.999326        -0.346574
 H         0.953626         1.778715         1.975080
 H        -0.172502         1.008483        -0.808879
 H         0.119612        -0.990238        -0.868011
 H        -1.028766        -0.116071         0.114473
 H         1.450443        -1.498956         2.089709
