19
Iteration:   179
 C         3.938968         1.481327         2.817529
 C         3.055540         0.991052         1.629846
 O         3.308866        -0.501657         1.420325
 C         2.570294        -0.355413         0.261861
 C         2.762523         1.225954         0.128424
 C         1.576596         1.242569         1.160073
 C         1.104483        -0.231173         0.783175
 C        -0.094335        -0.168716        -0.145090
 O         0.793396        -1.160993         1.828778
 H         3.533626         1.002025         3.649755
 H         5.053365         1.445554         2.524002
 H         3.974096         2.576525         2.893966
 H         2.620213        -1.096075        -0.619742
 H         2.996003         1.875070        -0.692756
 H         1.104519         2.305264         1.485138
 H        -0.075095        -0.744554        -1.073385
 H        -0.826927        -0.779354         0.462361
 H        -0.333395         0.789006        -0.375383
 H         1.760710        -1.259864         2.218464
