19
Iteration:  4041
 C         3.868912         1.681255         2.672186
 C         3.069941         0.973740         1.679274
 O         3.514901        -0.342072         1.388958
 C         2.609970        -0.302087         0.232267
 C         2.477128         1.239131         0.339731
 C         1.523856         0.995842         1.584371
 C         1.119147        -0.268822         0.827453
 C         0.125728        -0.103663        -0.304222
 O         0.687454        -1.381574         1.599712
 H         3.674019         1.680182         3.794864
 H         4.929710         1.365387         2.570745
 H         3.899099         2.756962         2.286739
 H         2.898882        -0.958428        -0.602967
 H         2.681297         2.077084        -0.352908
 H         0.959316         1.962920         1.851082
 H         0.319881         0.444278        -1.302673
 H        -0.099496        -1.143477        -0.609958
 H        -0.982142         0.062782        -0.093887
 H         1.360341        -1.520969         2.355588
