19
Iteration:   181
 C         3.932993         1.481139         2.793918
 C         3.064577         0.993447         1.641678
 O         3.328770        -0.494305         1.410061
 C         2.574494        -0.347682         0.253618
 C         2.763850         1.216874         0.131062
 C         1.578990         1.240622         1.177624
 C         1.101664        -0.241581         0.799048
 C        -0.109768        -0.171693        -0.152281
 O         0.782428        -1.162310         1.842360
 H         3.502338         0.974265         3.668614
 H         4.960649         1.423949         2.591317
 H         3.964106         2.596167         2.872594
 H         2.696306        -1.070424        -0.643436
 H         3.004295         1.891996        -0.657228
 H         1.166019         2.262860         1.432632
 H        -0.071221        -0.744857        -1.048518
 H        -0.843367        -0.741437         0.415029
 H        -0.309079         0.844468        -0.480730
 H         1.681817        -1.246748         2.164025
