19
Iteration:  1066
 C         3.773135         1.516639         2.758531
 C         3.072834         0.845518         1.682123
 O         3.283890        -0.597982         1.414882
 C         2.500713        -0.297102         0.099471
 C         2.776851         1.299967         0.234647
 C         1.630702         1.194850         1.283383
 C         1.126273        -0.194323         0.784488
 C        -0.099258        -0.247906        -0.188146
 O         0.921291        -1.033701         1.823973
 H         3.319330         1.158228         3.753086
 H         4.956713         1.418204         2.619238
 H         3.606207         2.584171         2.656741
 H         2.978955        -0.880614        -0.791940
 H         3.279420         1.832687        -0.539447
 H         0.927812         2.020395         1.744572
 H        -0.896599        -0.472653         0.510391
 H        -0.167488         0.751262        -0.772322
 H        -0.030874        -1.012402        -1.099299
 H         1.782636        -0.967483         2.331493
