19
Iteration:   887
 C         3.813013         1.611893         2.712568
 C         3.101389         0.878747         1.573936
 O         3.463760        -0.496709         1.341593
 C         2.569034        -0.352843         0.195375
 C         2.683532         1.190598         0.197536
 C         1.608508         1.106889         1.356405
 C         1.114573        -0.229103         0.864125
 C         0.038330        -0.081354        -0.206861
 O         0.662443        -1.144642         1.840920
 H         3.443342         1.139170         3.656425
 H         4.898928         1.434192         2.828034
 H         3.520729         2.734789         2.770416
 H         2.813034        -0.983472        -0.600197
 H         3.020040         2.008785        -0.438863
 H         1.071463         1.991216         1.741248
 H        -0.990316        -0.070195         0.309476
 H         0.135641         0.858068        -0.761587
 H        -0.047249        -1.007303        -0.813258
 H         1.390931        -1.605600         2.155340
