19
Iteration:  1799
 C         3.943085         1.768794         2.602510
 C         3.120787         0.862827         1.755615
 O         3.452104        -0.534127         1.378762
 C         2.556076        -0.352084         0.204262
 C         2.652023         1.248697         0.379093
 C         1.631868         1.114569         1.465044
 C         1.098055        -0.281144         0.806441
 C        -0.042355        -0.038742        -0.277112
 O         0.608350        -1.336151         1.680532
 H         3.790846         1.680734         3.727799
 H         5.027283         1.539169         2.398386
 H         3.707700         2.808110         2.461231
 H         3.002202        -0.899059        -0.698278
 H         2.996565         2.067346        -0.213300
 H         0.908325         1.760846         1.716589
 H         0.026980         1.052420        -0.433508
 H         0.157461        -0.409442        -1.437750
 H        -1.032288        -0.330829         0.105050
 H         1.343821        -1.496220         2.283867
