19
Iteration:  1925charge 0 multiplicity 1
 C         3.758631         1.418499         2.897190
 C         3.107892         0.934268         1.645976
 O         3.296433        -0.442373         1.245684
 C         2.480837        -0.257716         0.142642
 C         2.740482         1.241681         0.216076
 C         1.602914         1.294310         1.223241
 C         1.137561        -0.199852         0.826300
 C        -0.041774        -0.216908        -0.213691
 O         0.919757        -1.220643         1.899447
 H         3.622116         0.631656         3.655858
 H         4.838732         1.525959         2.735154
 H         3.499528         2.478811         3.314085
 H         2.841994        -0.874373        -0.643436
 H         2.912167         2.012815        -0.471277
 H         0.957502         2.042822         1.641518
 H         0.387132         0.175535        -1.190179
 H        -0.445091        -1.153957        -0.494044
 H        -0.968414         0.447275         0.143960
 H         1.872610        -1.508925         2.216711
