19
Iteration:   188
 C         3.880144         1.505652         2.732400
 C         3.094235         0.987411         1.645988
 O         3.390541        -0.463998         1.396046
 C         2.566117        -0.336315         0.184820
 C         2.748251         1.171237         0.178384
 C         1.632363         1.211355         1.231639
 C         1.075263        -0.231351         0.826601
 C        -0.134436        -0.171352        -0.180710
 O         0.751438        -1.152635         1.864630
 H         3.567844         1.039141         3.652867
 H         5.007597         1.113077         2.708080
 H         3.740526         2.570401         2.871878
 H         2.978494        -1.012011        -0.569255
 H         3.044709         1.932730        -0.547515
 H         1.103564         2.226424         1.424741
 H         0.076905        -0.843531        -1.066873
 H        -1.103655        -0.492896         0.336480
 H        -0.307827         0.798744        -0.594746
 H         1.689694        -1.365510         2.272008
