19
Iteration:  4285
 C         3.879825         1.908485         2.606030
 C         3.101580         0.943262         1.684540
 O         3.513621        -0.428168         1.497192
 C         2.535255        -0.365226         0.311160
 C         2.590991         1.207113         0.346323
 C         1.537255         1.003336         1.492247
 C         1.132810        -0.354896         0.743280
 C         0.065482        -0.065487        -0.257740
 O         0.674694        -1.392883         1.563910
 H         3.156225         2.252929         3.353007
 H         4.736863         1.339076         3.055988
 H         4.257994         2.725360         2.026556
 H         2.853410        -1.046569        -0.505230
 H         2.670036         2.067676        -0.343755
 H         0.890652         1.796524         2.018754
 H         0.187927         1.009838        -0.755825
 H         0.051854        -0.777248        -1.159038
 H        -0.924486         0.028333         0.226413
 H         1.405156        -1.852205         2.083826
