19
Iteration:  3376
 C         3.866279         1.733514         2.661239
 C         3.065057         0.951296         1.686043
 O         3.386494        -0.435782         1.406825
 C         2.609835        -0.264938         0.173159
 C         2.643926         1.246109         0.316699
 C         1.570387         1.021255         1.467709
 C         1.145114        -0.346232         0.843462
 C         0.107605        -0.077203        -0.202268
 O         0.674029        -1.357800         1.621907
 H         3.475868         1.583531         3.675126
 H         4.934052         1.474040         2.418320
 H         3.794173         2.853904         2.536177
 H         2.919826        -0.872599        -0.706782
 H         2.704482         2.128943        -0.431541
 H         0.959226         1.867280         1.704641
 H         0.439496         0.542185        -0.961731
 H        -0.175842        -1.058190        -0.531534
 H        -0.897496         0.317245         0.201284
 H         1.194141        -1.576308         2.369817
