19
Iteration:  3667
 C         3.889239         1.834188         2.641938
 C         3.059193         0.921185         1.672311
 O         3.359937        -0.484884         1.451213
 C         2.599871        -0.327316         0.211016
 C         2.690768         1.227146         0.274224
 C         1.570031         1.111597         1.408972
 C         1.163227        -0.347032         0.820888
 C         0.099216         0.007453        -0.177942
 O         0.654406        -1.445828         1.635029
 H         3.870566         1.416762         3.622979
 H         4.913565         1.881588         2.279070
 H         3.327403         2.801682         2.546382
 H         2.984356        -1.092928        -0.489212
 H         2.891436         1.937533        -0.504951
 H         0.787416         1.798524         1.797392
 H         0.139784         0.956133        -0.592539
 H         0.050043        -0.735628        -0.934351
 H        -0.910555        -0.032809         0.314802
 H         1.272144        -1.441413         2.449005
