19
Iteration:  1655
 C         3.933993         1.656811         2.629391
 C         3.077894         0.878780         1.674673
 O         3.361037        -0.474410         1.469779
 C         2.523510        -0.273163         0.182578
 C         2.583432         1.219091         0.303066
 C         1.586328         1.059643         1.480578
 C         1.126750        -0.202802         0.794014
 C         0.024022        -0.023283        -0.206012
 O         0.809048        -1.350706         1.604871
 H         3.744566         1.465193         3.694366
 H         4.946436         1.427951         2.583833
 H         3.620845         2.745536         2.468027
 H         2.741761        -0.954598        -0.586934
 H         2.735640         2.080778        -0.331818
 H         1.014857         1.831010         2.151131
 H         0.198663         0.539648        -1.052887
 H        -0.502463        -0.982453        -0.626327
 H        -0.737936         0.601703         0.355847
 H         1.660942        -1.605182         1.935350
