19
Iteration:  1283charge 0 multiplicity 1
 C         3.686427         1.493669         2.804902
 C         3.127254         0.824359         1.630389
 O         3.417607        -0.576955         1.219517
 C         2.545725        -0.268352         0.077893
 C         2.763899         1.234762         0.286127
 C         1.627942         1.219948         1.218092
 C         1.074599        -0.100107         0.835785
 C        -0.055196        -0.262010        -0.165892
 O         0.835206        -1.051064         1.936948
 H         3.159399         1.148455         3.727024
 H         4.757708         1.104564         3.024948
 H         3.729675         2.555713         2.692318
 H         2.693381        -0.841383        -0.917005
 H         3.037948         2.074812        -0.350691
 H         1.170653         1.887655         1.875455
 H        -1.057476        -0.113353         0.253527
 H         0.094575         0.565770        -1.057384
 H        -0.060611        -1.412572        -0.571704
 H         1.601080        -0.889464         2.652982
