19
Iteration:  1118
 C         3.975690         1.643689         2.714728
 C         3.110775         0.955871         1.618270
 O         3.395322        -0.401792         1.400902
 C         2.573299        -0.358142         0.228695
 C         2.635359         1.167949         0.259303
 C         1.589063         1.094497         1.371108
 C         1.110008        -0.242187         0.848724
 C        -0.008584        -0.091275        -0.264341
 O         0.656277        -1.278674         1.708687
 H         3.759921         1.108500         3.623738
 H         5.087363         1.396490         2.642422
 H         3.797441         2.684973         2.688338
 H         2.952402        -0.974558        -0.582371
 H         2.823845         1.939716        -0.418025
 H         1.122463         2.020666         1.874703
 H        -0.894214         0.279599         0.136892
 H         0.397603         0.511095        -1.101624
 H        -0.370460        -1.171966        -0.464411
 H         1.082417        -1.217047         2.611093
