19
Iteration:   527charge 0 multiplicity 1
 C         4.017516         1.748293         2.511114
 C         3.089772         0.912392         1.739142
 O         3.468665        -0.528287         1.412233
 C         2.540740        -0.395147         0.307311
 C         2.650805         1.206093         0.355443
 C         1.572287         1.136478         1.495560
 C         1.003879        -0.254338         0.881950
 C         0.094178        -0.058847        -0.275510
 O         0.585543        -1.319461         1.628594
 H         4.085173         1.691506         3.669210
 H         4.903956         1.710045         1.927973
 H         3.610170         2.740652         2.287184
 H         2.687649        -0.967152        -0.623838
 H         2.838247         1.851509        -0.494186
 H         1.055679         1.953174         1.820031
 H        -0.884476        -0.125387         0.145735
 H         0.045640         0.984057        -0.591382
 H         0.283669        -0.632710        -1.180572
 H         1.287510        -1.456706         2.299817
