19
Iteration:   640
 C         3.722537         1.505513         2.791273
 C         3.142781         0.840027         1.661275
 O         3.423626        -0.542795         1.209046
 C         2.511720        -0.316414         0.112043
 C         2.741220         1.283223         0.294696
 C         1.578509         1.172161         1.236893
 C         1.162413        -0.133274         0.827337
 C        -0.076303        -0.267365        -0.168385
 O         0.856330        -1.035971         1.878618
 H         3.319268         1.015015         3.614181
 H         4.842932         1.524303         3.013019
 H         3.281100         2.524095         2.964640
 H         2.579690        -1.042884        -0.712279
 H         3.087399         1.950771        -0.502410
 H         0.945933         1.857523         1.971312
 H        -0.786493         0.268885         0.349575
 H         0.043758         0.374271        -0.949136
 H        -0.267065        -1.238765        -0.610349
 H         1.503245        -1.238950         2.474702
