19
Iteration:  3055charge 0 multiplicity 1
 C         3.812760         1.520141         2.857494
 C         3.071505         0.952001         1.700074
 O         3.458150        -0.475018         1.364124
 C         2.547892        -0.340861         0.140155
 C         2.736436         1.285380         0.271141
 C         1.543652         1.146373         1.225619
 C         1.052545        -0.173019         0.748874
 C        -0.137829        -0.232164        -0.221574
 O         0.893292        -1.141152         1.775489
 H         3.864736         0.651969         3.606872
 H         4.804245         1.869953         2.613560
 H         3.427518         2.377882         3.383612
 H         2.885372        -1.049118        -0.582173
 H         2.985121         1.965985        -0.469625
 H         0.977641         1.894227         1.835527
 H         0.081490         0.346668        -1.064725
 H        -0.507170        -1.294113        -0.335478
 H        -1.039427         0.348301         0.223045
 H         1.793457        -1.405307         1.975394
