19
Iteration:   766charge 0 multiplicity 1
 C         3.821197         1.765791         2.553425
 C         3.136753         0.859672         1.656933
 O         3.518325        -0.556107         1.353077
 C         2.553870        -0.317039         0.224207
 C         2.634972         1.177885         0.305550
 C         1.610812         1.059521         1.578930
 C         1.129968        -0.266117         0.880459
 C         0.097988        -0.011341        -0.293602
 O         0.565794        -1.277936         1.694065
 H         3.698127         1.474006         3.634853
 H         4.814476         1.869805         2.219273
 H         3.520838         2.846402         2.418932
 H         2.738344        -1.067775        -0.509491
 H         2.987379         2.030959        -0.278295
 H         0.855169         1.805757         2.090559
 H        -0.791969         0.617998         0.095999
 H         0.769564         0.479461        -1.046809
 H        -0.469292        -0.836124        -0.598855
 H         1.120538        -1.372638         2.433693
