19
Iteration:  2381
 C         3.754497         1.475015         2.853165
 C         3.109845         0.870623         1.650496
 O         3.475260        -0.520572         1.320729
 C         2.631519        -0.252399         0.094535
 C         2.658153         1.327749         0.242090
 C         1.574830         1.147877         1.324951
 C         1.116968        -0.155622         0.758429
 C        -0.110189        -0.289358        -0.222354
 O         0.820504        -1.110166         1.843934
 H         3.259463         1.212663         3.798498
 H         4.759430         1.190408         2.794914
 H         3.608353         2.567026         2.858847
 H         3.173493        -0.783636        -0.733817
 H         2.788282         2.086247        -0.473224
 H         0.926691         1.949167         1.869468
 H         0.052657         0.264395        -1.094981
 H        -0.190757        -1.323530        -0.614386
 H        -1.116424         0.067421         0.224341
 H         1.600745        -0.887739         2.402677
