19
Iteration:  2640charge 0 multiplicity 1
 C         3.759222         1.351770         2.929227
 C         3.084882         0.962950         1.673190
 O         3.397608        -0.448613         1.319033
 C         2.535110        -0.241597         0.070756
 C         2.759999         1.312469         0.190023
 C         1.555172         1.237101         1.193371
 C         1.062463        -0.221964         0.753070
 C        -0.076144        -0.263372        -0.159648
 O         0.916756        -1.128241         1.887679
 H         3.097843         0.962822         3.725932
 H         4.829132         1.115713         3.062658
 H         3.587696         2.467474         3.141285
 H         2.915324        -0.835321        -0.793831
 H         3.105729         1.996529        -0.664284
 H         0.995097         2.087387         1.538236
 H        -0.087677         0.326663        -1.063373
 H        -0.033539        -1.305427        -0.602383
 H        -0.988381        -0.225602         0.429812
 H         1.799884        -1.263671         2.202390
