19
Iteration:  2108charge 0 multiplicity 1
 C         3.882816         1.808142         2.635899
 C         3.135981         0.886384         1.682518
 O         3.448150        -0.544760         1.335079
 C         2.594429        -0.346204         0.220446
 C         2.617673         1.236989         0.352575
 C         1.557698         1.024099         1.420528
 C         1.115705        -0.328833         0.871427
 C         0.096685         0.004718        -0.264541
 O         0.617068        -1.331463         1.710952
 H         3.952738         1.181046         3.529573
 H         4.898924         2.162768         2.336040
 H         3.155598         2.695669         2.874718
 H         2.850100        -0.791406        -0.697102
 H         2.796672         2.161058        -0.275579
 H         0.848458         1.720275         1.710674
 H         0.555695         0.743475        -1.033222
 H        -0.204604        -0.823380        -0.887706
 H        -0.693092         0.575897         0.291534
 H         1.198900        -1.309684         2.474261
