19
Iteration:  3927charge 0 multiplicity 1
 C         3.832390         1.584216         2.783811
 C         3.070667         0.946331         1.645269
 O         3.476641        -0.408614         1.343338
 C         2.585613        -0.309852         0.207549
 C         2.611432         1.276026         0.288463
 C         1.508670         1.099448         1.434286
 C         1.166058        -0.184913         0.774052
 C        -0.028519        -0.293122        -0.340871
 O         0.758054        -1.185565         1.743161
 H         4.065031         0.819094         3.507647
 H         4.753786         2.074484         2.532997
 H         3.328823         2.434815         3.227725
 H         3.000176        -0.944135        -0.587041
 H         3.031695         2.169341        -0.328643
 H         0.934251         1.869287         1.942691
 H         0.142728         0.333411        -1.248108
 H        -0.015526        -1.379825        -0.538232
 H        -0.979396        -0.173549         0.338595
 H         1.442389        -1.372286         2.338110
