19
Iteration:  4527
 C         4.072760         1.854731         2.640502
 C         3.085485         0.913410         1.802566
 O         3.383420        -0.472011         1.606828
 C         2.557051        -0.297394         0.225742
 C         2.661066         1.203094         0.334991
 C         1.484051         1.059120         1.459856
 C         1.096529        -0.225902         0.772024
 C        -0.001684        -0.194653        -0.421247
 O         0.690261        -1.352810         1.588471
 H         4.954146         1.344638         2.643909
 H         4.228663         2.659780         1.894682
 H         3.569672         2.134871         3.589032
 H         3.063498        -0.792609        -0.611061
 H         2.827793         1.956271        -0.482845
 H         0.777565         1.908438         1.684970
 H         0.206992         0.513899        -1.177346
 H        -0.130157        -1.253694        -0.814881
 H        -0.991430         0.131451         0.151282
 H         1.263208        -1.426297         2.320333
