19
Iteration:  3558
 C         3.780661         1.510492         2.806848
 C         3.038902         0.978720         1.709479
 O         3.404369        -0.455579         1.347213
 C         2.615924        -0.266810         0.146035
 C         2.674251         1.317754         0.223336
 C         1.526401         1.180648         1.280358
 C         1.166494        -0.206902         0.786380
 C        -0.017186        -0.267590        -0.173450
 O         0.813397        -1.226420         1.753980
 H         3.230545         1.635941         3.720597
 H         4.653887         0.978788         3.056241
 H         4.162118         2.506591         2.464856
 H         2.811584        -1.001657        -0.706989
 H         2.929547         2.355625        -0.259018
 H         0.951461         1.843395         1.862556
 H         0.253598         0.086929        -1.127846
 H        -0.198552        -1.323120        -0.340062
 H        -0.964991         0.182531         0.343500
 H         1.677126        -1.567773         2.100406
