19
Iteration:  3296charge 0 multiplicity 1
 C         3.749034         1.463352         2.883296
 C         3.083369         0.932108         1.660471
 O         3.407592        -0.434470         1.340195
 C         2.587584        -0.300379         0.115034
 C         2.739845         1.253174         0.204353
 C         1.561096         1.182182         1.289385
 C         1.083455        -0.199296         0.784031
 C        -0.082540        -0.281408        -0.249294
 O         0.881855        -1.101213         1.843117
 H         3.527728         0.697176         3.675173
 H         4.851283         1.432964         2.978969
 H         3.345764         2.467417         3.111478
 H         2.890482        -0.974253        -0.693718
 H         2.685160         2.044751        -0.507290
 H         0.967276         2.063054         1.722706
 H        -0.023076         0.420016        -1.063254
 H         0.044939        -1.229799        -0.827210
 H        -1.012160        -0.236449         0.306548
 H         1.849020        -0.967696         2.200162
