19
Iteration:   663charge 0 multiplicity 1
 C         3.883768         1.554597         2.729753
 C         3.039361         0.845866         1.703722
 O         3.358596        -0.538699         1.383085
 C         2.594992        -0.278852         0.104402
 C         2.705485         1.271795         0.185316
 C         1.592216         1.130178         1.340034
 C         1.047817        -0.154927         0.846785
 C        -0.084380        -0.235485        -0.194230
 O         0.823387        -1.105064         1.803679
 H         3.792289         1.175215         3.724831
 H         5.003955         1.563800         2.631497
 H         3.513623         2.564302         2.840226
 H         2.775143        -0.935411        -0.808232
 H         3.134718         2.070407        -0.408145
 H         1.043110         1.941673         1.834638
 H        -1.049074        -0.121719         0.153498
 H         0.016214         0.601857        -0.842965
 H         0.151863        -1.047616        -0.827862
 H         1.766216        -1.373975         2.211592
