19
Iteration:  4298charge 0 multiplicity 1
 C         3.826681         1.999570         2.650310
 C         3.147264         0.962925         1.765760
 O         3.487931        -0.520636         1.418762
 C         2.663091        -0.347154         0.244567
 C         2.600720         1.223850         0.359513
 C         1.608009         1.025492         1.417769
 C         1.103458        -0.307872         0.844140
 C         0.032725        -0.027151        -0.281485
 O         0.568231        -1.481250         1.599250
 H         3.338822         2.493412         3.454837
 H         4.770126         1.550682         3.124132
 H         4.237383         2.739306         1.933328
 H         3.066000        -0.914242        -0.624338
 H         2.762818         1.861987        -0.480067
 H         0.906282         1.740928         1.915683
 H         0.117357         0.934607        -0.650454
 H        -0.004250        -0.853899        -1.028703
 H        -0.906810        -0.284092         0.333398
 H         1.442251        -1.870154         1.816339
