19
Iteration:  3855
 C         3.890407         1.803099         2.565236
 C         3.069666         0.972960         1.728871
 O         3.425328        -0.420615         1.551058
 C         2.650414        -0.373755         0.277196
 C         2.558153         1.206613         0.322550
 C         1.581373         1.079759         1.470399
 C         1.178261        -0.272314         0.806620
 C         0.017239        -0.020526        -0.216679
 O         0.653315        -1.456696         1.500867
 H         3.905303         1.586104         3.691987
 H         4.999427         1.584210         2.240054
 H         3.720959         2.889651         2.256004
 H         2.890172        -1.021234        -0.597547
 H         2.756375         1.964128        -0.502996
 H         0.931858         1.798066         1.868328
 H         0.250076         0.688727        -0.992514
 H        -0.140949        -1.024223        -0.581510
 H        -0.886178         0.183724         0.377650
 H         1.380278        -1.633397         2.049029
