19
Iteration:   639
 C         3.725398         1.504503         2.801805
 C         3.143936         0.835723         1.650599
 O         3.425599        -0.540637         1.209760
 C         2.516617        -0.318089         0.107476
 C         2.743108         1.286897         0.283432
 C         1.577420         1.170874         1.235450
 C         1.158973        -0.137948         0.832353
 C        -0.078333        -0.262875        -0.160384
 O         0.855403        -1.034711         1.878453
 H         3.319944         1.008125         3.623966
 H         4.816727         1.516786         3.056926
 H         3.260693         2.541670         2.968274
 H         2.563740        -1.019109        -0.696816
 H         3.094467         1.958586        -0.514119
 H         0.929206         1.856832         1.987043
 H        -0.790869         0.283298         0.310425
 H         0.060643         0.354922        -0.945692
 H        -0.283672        -1.270037        -0.611508
 H         1.511741        -1.234018         2.478464
