19
Iteration:  2116charge 0 multiplicity 1
 C         3.820820         1.709380         2.667180
 C         3.093683         0.927022         1.694311
 O         3.455151        -0.511541         1.362266
 C         2.643282        -0.328932         0.139040
 C         2.638975         1.161926         0.333621
 C         1.529018         1.063282         1.402734
 C         1.173295        -0.295223         0.836366
 C         0.045118         0.015851        -0.281714
 O         0.672106        -1.297008         1.762894
 H         3.948972         1.167910         3.556464
 H         4.844071         2.015196         2.384105
 H         3.280161         2.605697         2.817715
 H         2.782186        -0.966432        -0.758321
 H         2.786402         1.976903        -0.295131
 H         0.842066         1.892318         1.812695
 H         0.366018         0.837490        -0.954193
 H        -0.328062        -0.858445        -0.774325
 H        -0.736097         0.395047         0.243726
 H         1.265674        -1.442988         2.551498
