19
Iteration:  1235
 C         3.968822         1.557547         2.725446
 C         3.056150         0.952296         1.638677
 O         3.322777        -0.481315         1.488414
 C         2.569145        -0.363682         0.199321
 C         2.694662         1.254820         0.199855
 C         1.571832         1.141791         1.310287
 C         1.070652        -0.217847         0.772310
 C        -0.079018        -0.121700        -0.173500
 O         0.799734        -1.219860         1.732105
 H         3.704665         1.110465         3.682689
 H         5.019326         1.285894         2.600492
 H         3.893195         2.677333         2.715191
 H         2.918296        -1.040918        -0.545616
 H         3.031248         2.003256        -0.526330
 H         1.012010         2.137019         1.604952
 H        -1.112894        -0.254453         0.288245
 H         0.062358         0.815111        -0.644431
 H         0.001931        -0.926396        -0.885137
 H         1.692240        -1.292246         2.200199
