19
Iteration:   430charge 0 multiplicity 1
 C         3.895001         1.588321         2.766882
 C         3.034746         0.876980         1.691768
 O         3.318117        -0.534112         1.438857
 C         2.518983        -0.372274         0.079522
 C         2.703415         1.219179         0.247214
 C         1.559723         1.156517         1.318203
 C         1.115957        -0.133877         0.742447
 C        -0.076798        -0.168871        -0.152117
 O         0.897557        -1.140502         1.776256
 H         3.963411         1.310522         3.870781
 H         4.920756         1.518462         2.340273
 H         3.587974         2.636168         2.671810
 H         2.804426        -1.183979        -0.647932
 H         3.071451         2.065101        -0.391262
 H         0.919841         1.901895         1.629020
 H        -0.933126         0.092317         0.442515
 H        -0.015094         0.645065        -0.927830
 H        -0.132921        -1.124432        -0.730787
 H         1.762952        -1.323794         2.063032
