19
Iteration:  2617
 C         3.638984         1.466616         2.859782
 C         3.018548         0.881012         1.674400
 O         3.456104        -0.518171         1.265038
 C         2.624834        -0.280386         0.052059
 C         2.774691         1.326349         0.224603
 C         1.586316         1.137585         1.298839
 C         1.102906        -0.206499         0.757653
 C        -0.113610        -0.237202        -0.136771
 O         0.931134        -1.042769         1.856023
 H         3.003940         1.226926         3.733692
 H         4.642540         1.029752         3.078839
 H         3.602668         2.581895         2.971466
 H         2.747699        -1.033569        -0.711470
 H         2.903797         2.241339        -0.444959
 H         1.093878         1.956054         1.895560
 H         0.058618         0.481281        -0.995258
 H        -0.253139        -1.234096        -0.611320
 H        -0.920838         0.047002         0.488232
 H         1.757586        -1.628210         1.971096
