19
Iteration:  3639
 C         3.945341         1.893983         2.622730
 C         3.104210         0.909162         1.696249
 O         3.589851        -0.440941         1.498134
 C         2.590259        -0.350767         0.264953
 C         2.566509         1.147764         0.304646
 C         1.594277         1.029400         1.531343
 C         1.059992        -0.275697         0.805672
 C        -0.020192        -0.037124        -0.281241
 O         0.596599        -1.385035         1.537619
 H         3.568984         1.862288         3.676336
 H         4.954934         1.425730         2.521002
 H         3.875443         2.856310         2.193542
 H         2.970692        -1.120594        -0.378024
 H         2.710006         1.954325        -0.365625
 H         0.933219         1.810350         1.997103
 H        -0.159652         0.995409        -0.814045
 H         0.136498        -0.993163        -0.840242
 H        -1.075223        -0.126813         0.134823
 H         1.433731        -1.520182         2.057616
