19
Iteration:  2406
 C         3.700244         1.540278         2.910196
 C         3.063666         0.875524         1.669843
 O         3.304350        -0.496544         1.269183
 C         2.501880        -0.296649         0.107634
 C         2.802449         1.341987         0.288439
 C         1.587742         1.200034         1.215626
 C         1.154424        -0.147710         0.755093
 C        -0.077396        -0.284247        -0.095397
 O         0.952407        -1.158767         1.788775
 H         3.083847         1.390761         3.876418
 H         4.703070         0.984691         2.934755
 H         3.747508         2.617542         2.878460
 H         2.774529        -1.015746        -0.723594
 H         3.439180         1.959181        -0.441399
 H         0.959674         1.908383         1.686447
 H         0.089770         0.128823        -1.100523
 H        -0.262885        -1.331278        -0.368629
 H        -0.989075         0.293284         0.304869
 H         1.966645        -1.458302         1.890412
