19
Iteration:   914
 C         3.968761         1.733152         2.684702
 C         3.093408         0.889559         1.622441
 O         3.417038        -0.448429         1.435035
 C         2.506984        -0.444746         0.230724
 C         2.569118         1.172955         0.211090
 C         1.624696         1.138337         1.423146
 C         1.115824        -0.302869         0.837619
 C         0.046642         0.024091        -0.262325
 O         0.681892        -1.325308         1.704353
 H         3.833789         1.360288         3.706171
 H         5.036735         1.483490         2.626878
 H         3.710862         2.737839         2.675860
 H         2.885592        -1.236868        -0.528606
 H         2.691309         2.025159        -0.445262
 H         1.139994         2.040100         1.867780
 H        -0.759489         0.583193         0.164024
 H         0.452680         0.746066        -0.997602
 H        -0.339024        -0.922712        -0.701526
 H         1.072107        -1.236119         2.516663
