19
Iteration:   297charge 0 multiplicity 1
 C         4.054774         1.684784         2.533053
 C         3.076106         0.978262         1.662932
 O         3.328203        -0.432796         1.509418
 C         2.552117        -0.330901         0.284110
 C         2.704841         1.235423         0.315738
 C         1.579929         1.185678         1.427113
 C         1.098328        -0.301700         0.858117
 C        -0.038802        -0.055240        -0.253828
 O         0.677706        -1.447082         1.623933
 H         4.148448         1.073993         3.359600
 H         4.907792         1.905021         1.833897
 H         3.894428         2.695936         2.785370
 H         2.791686        -1.162642        -0.416768
 H         2.975835         1.938980        -0.430290
 H         0.967960         2.077148         1.885834
 H        -1.071138        -0.011302         0.254781
 H         0.022440         1.066573        -0.492305
 H         0.043238        -0.719481        -1.104456
 H         1.306677        -1.813311         2.353194
