19
Iteration:  2864charge 0 multiplicity 1
 C         3.717623         1.402409         2.945041
 C         3.117550         0.945184         1.628163
 O         3.432142        -0.522975         1.261376
 C         2.623582        -0.200749         0.132990
 C         2.722112         1.291818         0.169785
 C         1.563238         1.224634         1.146008
 C         1.158848        -0.152363         0.774404
 C        -0.077488        -0.260158        -0.129908
 O         0.825813        -1.180602         1.894840
 H         3.568166         0.521978         3.594258
 H         4.820290         1.687458         2.845015
 H         3.221010         2.286669         3.352152
 H         2.859011        -0.873371        -0.660679
 H         2.831799         2.024419        -0.563662
 H         0.952319         2.105662         1.355227
 H        -0.095237         0.453949        -1.030988
 H        -0.245814        -1.302751        -0.347928
 H        -0.956051         0.068978         0.365742
 H         1.436029        -0.986413         2.672296
