19
Iteration:  4488
 C         3.801880         1.762479         2.633064
 C         3.012843         0.944607         1.706255
 O         3.373075        -0.467492         1.551448
 C         2.552900        -0.279573         0.192338
 C         2.781777         1.173946         0.291478
 C         1.529181         1.133777         1.364209
 C         1.130225        -0.280385         0.810087
 C         0.047270        -0.069170        -0.256144
 O         0.748840        -1.408322         1.665350
 H         4.733611         1.241003         3.116001
 H         4.281077         2.463728         1.946461
 H         3.439864         2.407222         3.428125
 H         2.806761        -1.041203        -0.563112
 H         3.180030         1.820996        -0.439703
 H         0.892370         1.984679         1.731337
 H         0.200205         0.854810        -0.942899
 H         0.053506        -0.913294        -0.893846
 H        -0.930397        -0.126041         0.110071
 H         1.529150        -1.578878         2.235987
