19
Iteration:   681charge 0 multiplicity 1
 C         3.999623         1.598076         2.678780
 C         3.104901         0.972093         1.655733
 O         3.277909        -0.467899         1.456208
 C         2.513948        -0.318779         0.225914
 C         2.677982         1.223213         0.303017
 C         1.595697         1.181280         1.350868
 C         1.087785        -0.272981         0.751531
 C        -0.042376        -0.127477        -0.257989
 O         0.779383        -1.264277         1.756264
 H         3.988362         1.030352         3.616832
 H         5.023734         1.431893         2.299237
 H         3.802910         2.724795         2.834660
 H         2.909943        -0.940531        -0.525612
 H         2.893074         1.964493        -0.470336
 H         0.977114         2.058991         1.840016
 H        -0.992849        -0.281883         0.323386
 H        -0.127452         0.813348        -0.810024
 H         0.013888        -1.032182        -1.031927
 H         1.752267        -1.384133         2.119258
