19
Iteration:  2291
 C         4.028487         1.868343         2.473956
 C         3.060164         0.844333         1.789347
 O         3.368912        -0.532652         1.553660
 C         2.652431        -0.341796         0.295485
 C         2.640463         1.150697         0.377014
 C         1.538900         1.096439         1.374859
 C         1.057380        -0.288218         0.763767
 C         0.015372         0.005071        -0.198127
 O         0.622735        -1.373189         1.547307
 H         4.467141         1.430181         3.310856
 H         4.794478         2.135740         1.763696
 H         3.500119         2.679819         2.996793
 H         3.138773        -0.608105        -0.606727
 H         3.067282         1.963993        -0.349054
 H         0.959154         1.773907         1.923157
 H         0.452583         0.922287        -0.830562
 H        -0.230839        -0.819018        -0.876898
 H        -0.788402         0.302366         0.363172
 H         1.259724        -1.586050         2.263797
