19
Iteration:  3796charge 0 multiplicity 1
 C         3.708539         1.587110         2.723675
 C         3.056615         0.914965         1.596192
 O         3.375622        -0.496460         1.427239
 C         2.542520        -0.364484         0.163300
 C         2.659453         1.265623         0.272611
 C         1.554506         1.140799         1.313093
 C         1.136446        -0.195906         0.800560
 C         0.056239        -0.165138        -0.162299
 O         0.901453        -1.200195         1.756910
 H         3.258433         1.353490         3.709484
 H         4.812111         1.444569         2.721315
 H         3.643309         2.725962         2.610754
 H         2.654426        -1.047014        -0.675908
 H         3.050429         2.008932        -0.357332
 H         0.932592         1.883752         1.909715
 H         0.220819         0.782766        -0.778786
 H        -0.031867        -0.892988        -0.982686
 H        -0.941987        -0.126224         0.320211
 H         1.814198        -1.448548         2.176914
