19
Iteration:  4067
 C         4.055887         1.761992         2.572001
 C         3.072378         1.053057         1.753972
 O         3.400366        -0.438021         1.432764
 C         2.540834        -0.238656         0.282166
 C         2.526336         1.320094         0.441651
 C         1.396479         1.024742         1.456281
 C         1.089170        -0.382022         0.834747
 C         0.222093        -0.098399        -0.357760
 O         0.688716        -1.489708         1.608218
 H         4.180816         1.377025         3.686312
 H         5.117343         1.786047         2.111726
 H         3.845300         2.849745         2.561317
 H         2.729655        -0.894238        -0.566709
 H         2.500758         2.091163        -0.317452
 H         0.812548         1.722144         1.962746
 H         0.639847         0.609812        -1.127534
 H        -0.143021        -0.915090        -1.012939
 H        -0.734480         0.178358        -0.141780
 H         1.197307        -1.524794         2.482574
