19
Iteration:   682charge 0 multiplicity 1
 C         3.999500         1.596560         2.673490
 C         3.105431         0.975666         1.657659
 O         3.279457        -0.465521         1.458030
 C         2.508517        -0.325912         0.237067
 C         2.678675         1.226075         0.301970
 C         1.590856         1.180779         1.354606
 C         1.090352        -0.276618         0.748254
 C        -0.041400        -0.123071        -0.258372
 O         0.778225        -1.269395         1.750873
 H         4.010168         1.058234         3.599007
 H         5.043516         1.426725         2.303339
 H         3.812277         2.719687         2.842919
 H         2.894636        -0.940477        -0.543537
 H         2.883833         1.969314        -0.464511
 H         0.982964         2.083556         1.816005
 H        -0.954260        -0.251879         0.325258
 H        -0.144242         0.781494        -0.798593
 H         0.026361        -1.013973        -1.039576
 H         1.746619        -1.380872         2.130542
