19
Iteration:  3567charge 0 multiplicity 1
 C         3.823663         1.534255         2.752508
 C         3.007632         0.911263         1.655260
 O         3.454719        -0.410625         1.383797
 C         2.576584        -0.350507         0.197316
 C         2.621194         1.354958         0.319813
 C         1.541342         1.174936         1.336016
 C         1.120445        -0.190791         0.786325
 C        -0.007996        -0.243509        -0.227968
 O         0.847929        -1.254307         1.728229
 H         3.130697         1.771107         3.643828
 H         4.636197         0.811263         2.832835
 H         4.243880         2.557168         2.502722
 H         2.703136        -1.108134        -0.636676
 H         3.005798         2.220474        -0.337479
 H         0.882291         1.862891         1.797463
 H         0.271421         0.307402        -1.193818
 H        -0.231316        -1.315413        -0.411975
 H        -0.959493         0.238817         0.046715
 H         1.698745        -1.255402         2.218655
