19
Iteration:  3375
 C         3.866239         1.734071         2.667052
 C         3.074306         0.956676         1.683116
 O         3.380571        -0.438393         1.407833
 C         2.610243        -0.265553         0.166160
 C         2.653342         1.247693         0.315047
 C         1.562906         1.014171         1.461996
 C         1.152627        -0.339886         0.845291
 C         0.096816        -0.078525        -0.201821
 O         0.674757        -1.357631         1.626115
 H         3.466343         1.575336         3.668495
 H         4.941935         1.477497         2.453803
 H         3.796988         2.863572         2.536400
 H         2.946938        -0.854323        -0.725998
 H         2.706867         2.098293        -0.418275
 H         0.937183         1.873433         1.728615
 H         0.428278         0.504094        -0.961639
 H        -0.181343        -1.043435        -0.572966
 H        -0.913871         0.304676         0.227876
 H         1.202425        -1.558080         2.364303
