19
Iteration:  3678charge 0 multiplicity 1
 C         3.801964         1.718532         2.602264
 C         3.024327         0.939530         1.725515
 O         3.392276        -0.471489         1.493883
 C         2.596563        -0.340271         0.213435
 C         2.613155         1.169981         0.230534
 C         1.601691         1.073485         1.356421
 C         1.127513        -0.236033         0.842849
 C         0.083080        -0.008194        -0.195208
 O         0.742895        -1.374398         1.648596
 H         3.992089         1.317465         3.561631
 H         4.762871         1.980159         2.158032
 H         3.403456         2.742361         2.873281
 H         2.792411        -0.954129        -0.686187
 H         3.040160         1.992661        -0.253122
 H         1.050186         1.944281         1.811344
 H         0.327622         0.818382        -0.723267
 H         0.110891        -0.830323        -0.867725
 H        -0.924176        -0.019885         0.321587
 H         1.513015        -1.534971         2.301160
