19
Iteration:  1058charge 0 multiplicity 1
 C         3.769652         1.543809         2.788318
 C         3.121053         0.836538         1.646189
 O         3.367421        -0.636868         1.385510
 C         2.504384        -0.271391         0.163211
 C         2.745573         1.266437         0.280968
 C         1.591486         1.180303         1.155275
 C         1.122178        -0.168651         0.750097
 C        -0.093250        -0.243564        -0.175532
 O         0.886315        -1.030554         1.840919
 H         3.404850         1.198652         3.784065
 H         4.830377         1.398561         2.718356
 H         3.567547         2.636540         2.812480
 H         2.785419        -0.913470        -0.741818
 H         3.113969         2.089664        -0.415435
 H         1.174794         1.954336         1.757817
 H        -1.044315        -0.407486         0.434256
 H        -0.290488         0.735447        -0.655778
 H         0.060357        -0.939392        -0.928673
 H         1.623242        -1.061630         2.392270
