19
Iteration:   276
 C         4.132642         1.708809         2.567883
 C         3.060151         0.988265         1.729457
 O         3.374989        -0.447352         1.545592
 C         2.556498        -0.391846         0.255403
 C         2.541962         1.128878         0.253159
 C         1.531939         1.076954         1.411120
 C         1.095539        -0.255489         0.798799
 C         0.038484         0.017007        -0.188658
 O         0.664726        -1.347967         1.581269
 H         4.225727         1.209637         3.499111
 H         5.158153         1.933164         1.983079
 H         3.901445         2.768424         2.714704
 H         2.986312        -1.150820        -0.467585
 H         2.650915         1.942779        -0.420353
 H         0.859762         1.995405         1.680514
 H        -0.862991        -0.564303         0.227253
 H        -0.426447         1.073055        -0.194128
 H         0.343295        -0.469257        -1.082597
 H         1.449601        -1.555033         2.192706
