19
Iteration:  4363
 C         3.846750         1.614031         2.774411
 C         2.987889         1.040326         1.687381
 O         3.325663        -0.359910         1.411737
 C         2.508502        -0.298071         0.180325
 C         2.670879         1.266333         0.304167
 C         1.535672         1.100683         1.290435
 C         1.100699        -0.291395         0.822790
 C         0.120088        -0.227409        -0.296156
 O         0.872338        -1.324686         1.782456
 H         3.459678         1.700493         3.735595
 H         4.732571         0.922839         2.800940
 H         4.207012         2.618762         2.505977
 H         2.723958        -1.026921        -0.620176
 H         2.935374         1.952372        -0.464987
 H         0.886353         1.902091         1.560179
 H         0.403261         0.549850        -0.973231
 H        -0.191737        -1.122350        -0.916746
 H        -0.865647         0.298330         0.054213
 H         1.707588        -1.558721         2.142543
