19
Iteration:  3027
 C         3.810237         1.645433         2.680236
 C         3.054218         0.941703         1.696049
 O         3.366273        -0.539906         1.378889
 C         2.538998        -0.292438         0.120138
 C         2.667750         1.251474         0.244641
 C         1.597951         1.061046         1.453469
 C         1.138798        -0.217918         0.826931
 C         0.055970        -0.115497        -0.206583
 O         0.781968        -1.265253         1.716417
 H         3.786071         1.189931         3.634205
 H         4.878780         1.852702         2.389409
 H         3.414797         2.652565         2.886365
 H         2.872985        -0.986778        -0.698233
 H         3.102565         2.111146        -0.417846
 H         0.895543         1.782680         1.717050
 H         0.314085         0.849461        -0.742053
 H        -0.133684        -1.042663        -0.680688
 H        -0.885758         0.217758         0.258956
 H         1.429403        -1.302164         2.432801
