19
Iteration:   941charge 0 multiplicity 1
 C         4.049480         1.781506         2.510170
 C         3.040167         0.902568         1.763785
 O         3.388853        -0.513741         1.504947
 C         2.521359        -0.357859         0.274264
 C         2.730608         1.192631         0.338002
 C         1.533449         1.134048         1.486024
 C         1.106399        -0.275130         0.801211
 C         0.011309        -0.039013        -0.235919
 O         0.625788        -1.334935         1.579520
 H         4.207501         1.519283         3.572160
 H         4.975465         1.531496         1.973979
 H         3.794286         2.910036         2.464940
 H         2.879956        -0.915807        -0.526167
 H         2.847815         1.952149        -0.489063
 H         0.917094         1.872390         1.994800
 H        -0.725783         0.826923        -0.028861
 H         0.432525         0.176196        -1.214686
 H        -0.405440        -1.050957        -0.359778
 H         1.336677        -1.580239         2.103103
