19
Iteration:  1585charge 0 multiplicity 1
 C         3.974271         1.746488         2.597075
 C         3.095171         0.864497         1.715752
 O         3.441820        -0.499410         1.353644
 C         2.487529        -0.311029         0.234808
 C         2.651492         1.253563         0.318089
 C         1.593159         1.073056         1.558679
 C         1.044791        -0.202329         0.843314
 C         0.126794        -0.084317        -0.317631
 O         0.593930        -1.317299         1.693594
 H         4.109561         1.351383         3.589832
 H         5.026459         1.697549         2.191318
 H         3.496797         2.661546         2.653675
 H         2.807685        -0.925596        -0.682247
 H         2.662168         2.148187        -0.395234
 H         1.099439         1.697546         2.255112
 H        -0.459806         0.945354        -0.463570
 H         0.526091        -0.297943        -1.242929
 H        -0.582650        -0.824214        -0.055104
 H         1.472432        -1.733813         2.080994
