19
Iteration:  3411charge 0 multiplicity 1
 C         4.038874         1.839038         2.555805
 C         3.171287         1.003160         1.722598
 O         3.471530        -0.443549         1.454859
 C         2.508804        -0.297022         0.318686
 C         2.514618         1.199914         0.422896
 C         1.448722         0.960550         1.557079
 C         1.038047        -0.314439         0.817885
 C         0.113002        -0.034580        -0.434208
 O         0.631130        -1.409133         1.640821
 H         4.327768         1.255733         3.476597
 H         5.112997         1.893940         2.254501
 H         3.590859         2.826651         2.617285
 H         2.798553        -0.925042        -0.502081
 H         2.693466         1.965340        -0.414176
 H         0.806429         1.710994         1.967827
 H         0.815363         0.471609        -1.221669
 H        -0.095128        -1.029039        -0.896071
 H        -0.741436         0.587462        -0.246052
 H         1.453694        -1.665529         1.999801
