19
Iteration:  2134charge 0 multiplicity 1
 C         3.785963         1.593646         2.760236
 C         3.041649         0.877580         1.695176
 O         3.450428        -0.430422         1.409899
 C         2.562469        -0.377179         0.233534
 C         2.668259         1.252286         0.185746
 C         1.623943         1.061024         1.325268
 C         1.074146        -0.235444         0.773266
 C        -0.035451        -0.081886        -0.201391
 O         0.798578        -1.184452         1.724926
 H         3.714006         0.921330         3.708436
 H         4.866494         1.575818         2.525221
 H         3.461098         2.623613         2.892302
 H         2.965111        -1.043254        -0.596490
 H         2.975944         2.003040        -0.513694
 H         0.951509         1.820771         1.856232
 H         0.182938         0.681674        -0.906274
 H        -0.090344        -1.051612        -0.798931
 H        -0.990804         0.268724         0.418884
 H         1.742692        -1.306027         2.079916
