19
Iteration:  2196charge 0 multiplicity 1
 C         3.797404         1.432456         2.846352
 C         3.083041         0.869868         1.650220
 O         3.429853        -0.534655         1.341418
 C         2.563841        -0.279162         0.123508
 C         2.639849         1.296787         0.309278
 C         1.567875         1.224435         1.259699
 C         1.073335        -0.149365         0.704676
 C        -0.055617        -0.311714        -0.259885
 O         0.890990        -1.004094         1.861064
 H         3.083588         1.368037         3.678033
 H         4.702750         0.864609         2.930233
 H         3.972410         2.569909         2.949242
 H         2.977794        -0.819825        -0.708881
 H         3.148636         2.020143        -0.405147
 H         0.841546         1.853088         1.644997
 H        -0.340007         0.279407        -1.105206
 H        -0.140877        -1.363682        -0.506847
 H        -0.841703        -0.168565         0.557257
 H         1.844911        -1.237311         2.202260
