19
Iteration:  3199charge 0 multiplicity 1
 C         4.012069         1.820601         2.494521
 C         3.050236         0.999913         1.762914
 O         3.341224        -0.481795         1.569203
 C         2.584935        -0.299626         0.228437
 C         2.595771         1.209885         0.326381
 C         1.582223         1.046600         1.526463
 C         1.131255        -0.351095         0.798505
 C         0.071556        -0.022952        -0.243077
 O         0.619185        -1.420856         1.530694
 H         4.050478         1.567696         3.604258
 H         5.076889         1.669406         2.191574
 H         3.788499         2.895855         2.333325
 H         3.042728        -0.898541        -0.581548
 H         3.008533         1.958171        -0.442646
 H         1.012610         1.829674         2.059072
 H         0.444651         0.807043        -0.806012
 H        -0.208541        -0.853323        -0.902239
 H        -0.910696         0.351797         0.419098
 H         1.395471        -1.999033         1.887710
