19
Iteration:  1970
 C         3.632804         1.414894         2.891839
 C         3.125619         0.850835         1.628381
 O         3.445610        -0.502865         1.257166
 C         2.628776        -0.257392         0.087574
 C         2.757678         1.331897         0.217214
 C         1.615458         1.137340         1.262551
 C         1.130412        -0.189444         0.730373
 C        -0.157782        -0.200330        -0.103887
 O         0.887950        -1.094086         1.841200
 H         3.144175         1.046244         3.831280
 H         4.684944         1.459508         3.007527
 H         3.374029         2.497464         2.767615
 H         2.728195        -0.927125        -0.799897
 H         3.112613         2.011949        -0.555939
 H         1.064393         1.860593         1.741251
 H        -0.240982         0.506003        -0.886266
 H        -0.306349        -1.180883        -0.491298
 H        -0.923712        -0.109501         0.779447
 H         1.656362        -0.928148         2.539240
