19
Iteration:  2768charge 0 multiplicity 1
 C         4.048142         1.814748         2.564529
 C         3.120426         0.988866         1.735111
 O         3.528453        -0.443976         1.489158
 C         2.597664        -0.324561         0.316164
 C         2.556987         1.177853         0.331664
 C         1.559304         1.000094         1.488367
 C         1.026012        -0.307967         0.762051
 C        -0.013405        -0.015309        -0.217604
 O         0.562041        -1.392770         1.542322
 H         3.771704         1.559025         3.585388
 H         5.102390         1.463574         2.496271
 H         3.912445         2.917744         2.375124
 H         2.844285        -1.024382        -0.463240
 H         2.844398         1.806239        -0.483707
 H         0.914369         1.799093         1.816568
 H         0.509510         0.886930        -0.823853
 H        -0.198094        -0.973268        -0.766301
 H        -0.885601         0.399315         0.200557
 H         1.404157        -1.722297         1.885358
