19
Iteration:   601
 C         3.797038         1.437814         2.875032
 C         3.101471         0.933636         1.570017
 O         3.407619        -0.422372         1.340889
 C         2.558237        -0.335175         0.177873
 C         2.721656         1.240387         0.118324
 C         1.563307         1.215612         1.266377
 C         1.152353        -0.237640         0.802547
 C        -0.093252        -0.174664        -0.122875
 O         0.859282        -1.120890         1.831639
 H         3.161034         0.820764         3.643749
 H         4.860684         1.269751         2.908824
 H         3.584770         2.445816         3.039082
 H         2.695175        -1.136657        -0.610229
 H         2.792419         1.980893        -0.675667
 H         0.985916         1.890057         1.731107
 H        -0.934062         0.537595         0.282964
 H         0.294150         0.188952        -1.198582
 H        -0.634016        -1.113720        -0.213151
 H         1.737233        -1.406275         2.166413
