19
Iteration:  1430
 C         4.011591         1.663778         2.631994
 C         3.179452         0.996631         1.547803
 O         3.483682        -0.480437         1.416367
 C         2.506080        -0.397134         0.338561
 C         2.534863         1.210194         0.230546
 C         1.656624         1.048124         1.471671
 C         1.059433        -0.237483         0.845522
 C         0.120314        -0.047540        -0.241569
 O         0.524009        -1.305950         1.684443
 H         3.538980         1.560531         3.605187
 H         5.042036         1.369603         2.660815
 H         3.931429         2.775449         2.458872
 H         2.576462        -1.067919        -0.493478
 H         2.677828         1.931211        -0.543634
 H         0.999430         1.920107         1.994636
 H        -0.967656        -0.314280         0.019941
 H        -0.141185         0.969182        -0.441665
 H         0.566066        -0.509944        -1.131213
 H         1.246342        -1.163611         2.448172
