19
Iteration:   649charge 0 multiplicity 1
 C         3.747894         1.515187         2.768868
 C         3.088035         0.853725         1.657680
 O         3.411946        -0.560835         1.244035
 C         2.506537        -0.302526         0.146031
 C         2.722643         1.242094         0.337629
 C         1.614692         1.190319         1.298977
 C         1.128350        -0.167241         0.759287
 C        -0.034634        -0.219797        -0.197188
 O         0.837495        -1.059536         1.870942
 H         3.480221         1.030100         3.691048
 H         4.798612         1.543787         2.449658
 H         3.430055         2.630582         2.789927
 H         2.747329        -0.926616        -0.656916
 H         3.050501         2.049562        -0.327260
 H         1.062207         2.116198         1.812741
 H        -0.884884        -0.153438         0.477444
 H        -0.002510         0.486014        -0.980754
 H        -0.187587        -1.312838        -0.564297
 H         1.651755        -1.141019         2.295620
