19
Iteration:   272
 C         4.135827         1.724062         2.564977
 C         3.066881         0.966794         1.689597
 O         3.386182        -0.468910         1.544190
 C         2.588829        -0.407182         0.242028
 C         2.518325         1.122913         0.285409
 C         1.526338         1.100435         1.441626
 C         1.112797        -0.254868         0.810314
 C         0.012376         0.021891        -0.219395
 O         0.679001        -1.322491         1.596795
 H         4.092835         1.212665         3.554250
 H         4.990148         1.886793         2.026876
 H         3.903359         2.771025         2.711433
 H         2.930837        -1.151579        -0.420398
 H         2.561955         1.965903        -0.412790
 H         0.905886         2.005015         1.657887
 H        -0.831832        -0.571131         0.197717
 H        -0.448452         0.993283        -0.186302
 H         0.340823        -0.397690        -1.219778
 H         1.386401        -1.610919         2.149887
