19
Iteration:   120
 C         3.963838         1.736130         2.654744
 C         3.120130         0.848005         1.680322
 O         3.406254        -0.555295         1.351910
 C         2.520734        -0.437942         0.166827
 C         2.693618         1.136438         0.264312
 C         1.587851         1.092607         1.331106
 C         1.069979        -0.222837         0.820399
 C         0.015410        -0.105297        -0.172928
 O         0.649625        -1.061082         1.813525
 H         3.917545         1.408031         3.743895
 H         5.044753         1.763246         2.431916
 H         3.435981         2.712838         2.589710
 H         2.642006        -1.125963        -0.621043
 H         3.117665         1.958780        -0.332515
 H         1.032263         1.914280         1.609711
 H         0.538169         0.110104        -1.127686
 H        -0.464631        -1.055044        -0.257475
 H        -0.834927         0.643856         0.025257
 H         1.429436        -1.300721         2.440326
