19
Iteration:   857
 C         3.823024         1.569693         2.810016
 C         3.108138         0.829525         1.684190
 O         3.348899        -0.566943         1.321537
 C         2.536297        -0.289526         0.179311
 C         2.829245         1.222358         0.225968
 C         1.587589         1.156173         1.288488
 C         1.064971        -0.142798         0.790169
 C        -0.114177        -0.252996        -0.222563
 O         0.831549        -1.021853         1.833712
 H         3.494483         1.090982         3.699790
 H         4.938440         1.610654         2.673654
 H         3.628388         2.634708         2.953246
 H         2.726593        -0.903745        -0.652334
 H         3.133484         2.081992        -0.422835
 H         1.093289         1.974265         1.652855
 H        -0.956435        -0.517397         0.346630
 H        -0.285240         0.527868        -0.907339
 H        -0.012983        -1.189967        -0.932784
 H         1.747146        -1.257867         2.124221
