19
Iteration:  3646
 C         3.942242         1.901392         2.644893
 C         3.149420         0.959918         1.681739
 O         3.520993        -0.435654         1.487804
 C         2.587836        -0.368649         0.285749
 C         2.588763         1.146293         0.339334
 C         1.634700         0.993436         1.476324
 C         1.050175        -0.316952         0.786304
 C        -0.029659        -0.033928        -0.272686
 O         0.615572        -1.387495         1.543043
 H         3.681338         1.789773         3.645520
 H         5.006633         1.653576         2.566717
 H         3.804468         2.924816         2.230126
 H         2.839893        -1.131000        -0.476481
 H         2.665972         2.030665        -0.240356
 H         0.991603         1.792863         1.932416
 H        -0.012718         0.879015        -0.754513
 H        -0.030931        -0.767408        -1.071768
 H        -1.070652        -0.157164         0.264744
 H         1.274896        -1.496786         2.196073
