19
Iteration:    27
 C         4.123304         1.727539         2.404612
 C         3.072432         0.879164         1.755053
 O         3.240992        -0.598224         1.542100
 C         2.506005        -0.405289         0.276696
 C         2.729782         1.099996         0.318921
 C         1.594746         1.185708         1.328270
 C         1.092867        -0.193397         0.846855
 C        -0.050753        -0.049656        -0.279652
 O         0.728339        -1.192098         1.770450
 H         4.156860         1.556872         3.483887
 H         5.199112         1.570864         1.990479
 H         3.734906         2.740179         2.328361
 H         2.676849        -1.159382        -0.501637
 H         3.138546         1.840997        -0.382991
 H         0.929631         2.031291         1.567407
 H        -0.672305         0.897295        -0.076173
 H         0.317084         0.035418        -1.410025
 H        -0.638037        -0.983686        -0.235944
 H         1.235679        -1.086352         2.523973
