19
Iteration:  3765charge 0 multiplicity 1
 C         3.818950         1.468058         2.932945
 C         3.098041         0.983164         1.634022
 O         3.435188        -0.428522         1.303121
 C         2.588238        -0.291235         0.106209
 C         2.648138         1.271583         0.266453
 C         1.557490         1.147803         1.274122
 C         1.073815        -0.189103         0.786634
 C        -0.036072        -0.385362        -0.290655
 O         0.823347        -1.083034         1.892136
 H         3.617029         0.752348         3.710124
 H         4.910586         1.586121         2.691016
 H         3.392514         2.503124         3.053050
 H         2.790470        -0.895260        -0.790910
 H         2.750584         2.023205        -0.474997
 H         1.054001         2.071337         1.726163
 H         0.264302         0.279338        -0.997306
 H        -0.173455        -1.323322        -0.757989
 H        -1.016758         0.049006         0.012678
 H         1.708973        -1.177570         2.274571
