19
Iteration:  2758
 C         4.078438         1.894998         2.602241
 C         3.163148         1.016450         1.699150
 O         3.515073        -0.441789         1.440105
 C         2.510567        -0.405237         0.304496
 C         2.651931         1.174597         0.370489
 C         1.488000         1.013037         1.452279
 C         1.058209        -0.364597         0.873885
 C         0.041527         0.061363        -0.216972
 O         0.521943        -1.478081         1.530926
 H         3.915831         1.722323         3.672876
 H         5.143783         1.652995         2.367031
 H         3.860729         3.008454         2.521797
 H         2.837524        -0.960094        -0.581523
 H         2.879324         1.885199        -0.376810
 H         0.814549         1.745177         1.716714
 H         0.415607         0.822434        -1.043672
 H        -0.265943        -0.734325        -0.971582
 H        -0.882749         0.471606         0.169265
 H         1.197615        -1.860170         2.052980
