19
Iteration:  1404
 C         4.023563         1.781031         2.502074
 C         3.088671         0.909786         1.697339
 O         3.477056        -0.505449         1.427031
 C         2.544478        -0.387277         0.317016
 C         2.668532         1.159123         0.298425
 C         1.599306         1.017397         1.480733
 C         1.093657        -0.239289         0.895873
 C         0.089860         0.042927        -0.272385
 O         0.494914        -1.339711         1.661312
 H         4.090127         1.590584         3.595212
 H         5.025629         1.714740         2.070722
 H         3.627847         2.824143         2.422556
 H         2.720593        -1.002483        -0.558436
 H         2.575633         2.033614        -0.385472
 H         0.949765         1.756376         1.801852
 H        -0.846725         0.133971         0.091061
 H         0.031980         1.112932        -0.632552
 H         0.245830        -0.651296        -1.127067
 H         1.142892        -1.670916         2.371036
