19
Iteration:  4252charge 0 multiplicity 1
 C         3.964606         1.694771         2.692680
 C         3.003269         1.011221         1.728040
 O         3.381399        -0.433471         1.443245
 C         2.521472        -0.256539         0.255351
 C         2.571775         1.309026         0.301794
 C         1.452113         1.110848         1.341665
 C         1.175734        -0.333060         0.797130
 C         0.101597        -0.167949        -0.318698
 O         0.794869        -1.409739         1.687678
 H         3.400235         1.930290         3.609499
 H         4.731526         0.941582         2.991484
 H         4.380936         2.573922         2.221249
 H         2.802713        -0.842359        -0.638066
 H         2.628514         2.126586        -0.457763
 H         0.943268         1.945590         1.897840
 H         0.680954         0.608813        -0.970284
 H        -0.115919        -1.139244        -0.860052
 H        -0.810345         0.113289         0.178817
 H         1.462163        -1.456080         2.443473
