19
Iteration:  1657
 C         3.924438         1.659215         2.642600
 C         3.082915         0.869871         1.668789
 O         3.366549        -0.490446         1.460499
 C         2.526243        -0.270102         0.189017
 C         2.585383         1.228052         0.302149
 C         1.575091         1.059771         1.477415
 C         1.136568        -0.196318         0.795313
 C         0.002405        -0.031724        -0.197110
 O         0.815459        -1.328182         1.601921
 H         3.702616         1.466389         3.730086
 H         4.988924         1.452088         2.622100
 H         3.559910         2.708875         2.489804
 H         2.691804        -0.970581        -0.632385
 H         2.700521         2.116342        -0.394612
 H         1.135517         1.779305         2.104100
 H         0.254809         0.449666        -1.089131
 H        -0.508759        -0.966590        -0.621508
 H        -0.722290         0.619888         0.327315
 H         1.703710        -1.652720         2.012009
