19
Iteration:  4784
 C         3.922210         1.696517         2.646250
 C         3.002647         0.972644         1.711655
 O         3.317768        -0.479524         1.682562
 C         2.577528        -0.400115         0.329821
 C         2.789051         1.122324         0.207828
 C         1.563798         1.240103         1.207237
 C         1.098062        -0.233080         0.735431
 C         0.045168        -0.108983        -0.320558
 O         0.684836        -1.283624         1.719527
 H         3.923049         1.281020         3.630822
 H         4.934925         1.637362         2.290934
 H         3.736160         2.732882         2.672036
 H         2.813943        -1.190643        -0.388289
 H         3.324463         1.778724        -0.421906
 H         0.917941         2.141192         1.479680
 H         0.275577         0.625125        -1.085751
 H        -0.201799        -1.071715        -0.919309
 H        -0.919960         0.188711         0.149773
 H         1.579034        -1.650871         2.043953
