19
Iteration:  1702
 C         3.686255         1.440420         2.852680
 C         3.108908         0.875389         1.638794
 O         3.481200        -0.487647         1.239347
 C         2.572846        -0.240269         0.080816
 C         2.712016         1.354952         0.268940
 C         1.638886         1.130179         1.304425
 C         1.119292        -0.262339         0.796927
 C        -0.089055        -0.181234        -0.133273
 O         0.790577        -1.093187         1.847615
 H         3.693659         0.827762         3.781472
 H         4.808650         1.557401         2.756875
 H         3.138526         2.360349         3.041328
 H         2.966277        -0.816135        -0.815226
 H         2.930691         2.044181        -0.575246
 H         1.029615         1.710127         1.844803
 H         0.236494        -0.209891        -1.184626
 H        -0.660631        -1.114655        -0.059860
 H        -0.753864         0.664530        -0.013223
 H         1.692107        -1.392532         2.202521
