19
Iteration:  4968charge 0 multiplicity 1
 C         3.926401         1.860277         2.582323
 C         3.139131         1.013265         1.642742
 O         3.438692        -0.419312         1.563106
 C         2.549089        -0.507249         0.389094
 C         2.592240         1.047459         0.240707
 C         1.601820         1.031481         1.462037
 C         1.101033        -0.254604         0.873354
 C         0.267454        -0.005533        -0.380315
 O         0.434039        -1.307597         1.598812
 H         3.351107         2.273431         3.503431
 H         4.724417         1.150579         2.968215
 H         4.464409         2.668553         2.091751
 H         2.778455        -1.318739        -0.347142
 H         2.758606         1.797134        -0.602600
 H         1.120619         1.947553         1.770977
 H         0.369902         1.014291        -0.881418
 H         0.481546        -0.880066        -1.020484
 H        -0.747315        -0.121194        -0.043495
 H         1.013667        -1.391970         2.342239
