19
Iteration:  1861
 C         4.081667         1.807260         2.562803
 C         3.120373         0.902945         1.752419
 O         3.440091        -0.466958         1.450338
 C         2.548560        -0.335625         0.278994
 C         2.623914         1.229204         0.357825
 C         1.552612         1.086206         1.456444
 C         1.070725        -0.288871         0.843413
 C         0.052517         0.028037        -0.261418
 O         0.543836        -1.465052         1.569119
 H         4.190532         1.480125         3.583651
 H         5.049378         1.679836         2.176598
 H         3.761166         2.861575         2.384313
 H         2.901631        -0.899035        -0.600119
 H         2.822514         1.988035        -0.412135
 H         0.764875         1.643812         1.993267
 H         0.210085         0.965343        -0.615501
 H         0.174896        -0.680418        -0.973094
 H        -1.015595         0.073760         0.037410
 H         1.201820        -1.626024         2.317092
