19
Iteration:  2794
 C         3.917007         1.655671         2.619198
 C         3.034755         0.924412         1.711566
 O         3.327617        -0.495060         1.393014
 C         2.523469        -0.332169         0.206602
 C         2.693356         1.308025         0.334434
 C         1.575361         1.078992         1.442344
 C         1.153380        -0.230026         0.800806
 C         0.071151        -0.104358        -0.241561
 O         0.754449        -1.296508         1.680576
 H         3.600515         1.465800         3.680949
 H         4.947909         1.333594         2.474945
 H         3.832025         2.726512         2.346057
 H         2.706564        -1.045001        -0.644251
 H         2.880596         2.194979        -0.302936
 H         0.849012         1.809309         1.800587
 H         0.167465         0.703116        -0.917711
 H         0.054016        -1.121117        -0.690860
 H        -0.950227         0.008605         0.310780
 H         1.391441        -1.285613         2.369905
