19
Iteration:    12charge 0 multiplicity 1
 C         4.030254         1.717696         2.571931
 C         3.032794         0.852721         1.706490
 O         3.284279        -0.592817         1.503712
 C         2.504916        -0.448222         0.255187
 C         2.739057         1.110865         0.172844
 C         1.659671         1.171109         1.275698
 C         1.018280        -0.151620         0.819154
 C        -0.037635        -0.086793        -0.169913
 O         0.712008        -1.134642         1.799075
 H         4.248711         1.517758         3.614679
 H         4.884800         1.398400         1.953910
 H         3.976742         2.788800         2.411159
 H         2.837156        -1.141577        -0.489249
 H         2.996068         1.822636        -0.597144
 H         1.331729         2.060547         1.748067
 H        -0.870330         0.587150         0.044362
 H         0.521627         0.333280        -1.041700
 H        -0.306064        -1.089238        -0.458100
 H         1.472417        -0.898982         2.487032
