19
Iteration:  4927
 C         3.939109         1.885289         2.565353
 C         3.044094         0.912861         1.784866
 O         3.202135        -0.550399         1.683552
 C         2.631100        -0.435741         0.272725
 C         2.795883         1.071671         0.323634
 C         1.629333         1.101481         1.308535
 C         1.165508        -0.231550         0.689483
 C         0.018648        -0.029234        -0.313054
 O         0.648251        -1.233654         1.645843
 H         3.858682         1.695553         3.622538
 H         5.005555         1.733255         2.290910
 H         3.664548         2.911179         2.287718
 H         3.060863        -1.126413        -0.488153
 H         3.052649         1.875641        -0.419431
 H         0.919541         1.859885         1.544124
 H         0.307171         0.510170        -1.094278
 H        -0.191029        -1.032111        -0.813418
 H        -0.967521         0.141912         0.125990
 H         1.405438        -1.591053         2.192891
