19
Iteration:  3869charge 0 multiplicity 1
 C         3.945138         1.794108         2.530843
 C         3.016901         0.943737         1.715697
 O         3.482627        -0.403439         1.537231
 C         2.507301        -0.339848         0.277181
 C         2.570390         1.181476         0.291806
 C         1.533124         0.993279         1.522605
 C         1.076223        -0.273003         0.836500
 C         0.095643        -0.059578        -0.280704
 O         0.733747        -1.367915         1.543663
 H         3.936472         1.533421         3.668066
 H         4.993231         1.649372         2.164298
 H         3.630694         2.865065         2.699911
 H         2.953745        -1.065724        -0.375271
 H         2.598446         1.992510        -0.332580
 H         0.959335         1.764031         2.055230
 H         0.485483         0.761183        -1.132202
 H        -0.121261        -1.008690        -0.882231
 H        -0.797948         0.457699        -0.020769
 H         1.375518        -1.760049         2.222355
