19
Iteration:  2839
 C         3.718623         1.437723         2.834486
 C         3.060564         0.893676         1.613266
 O         3.369629        -0.427561         1.316717
 C         2.539084        -0.278119         0.137455
 C         2.713301         1.272954         0.192683
 C         1.603380         1.116148         1.322770
 C         1.132108        -0.137245         0.772055
 C        -0.016322        -0.302447        -0.200396
 O         0.893776        -1.039020         1.845972
 H         3.529814         0.589389         3.581388
 H         4.824777         1.357764         2.671368
 H         3.441449         2.394961         3.242781
 H         2.718412        -1.154136        -0.511425
 H         3.060614         2.244239        -0.298007
 H         1.047449         2.002939         1.885115
 H         0.012547         0.409747        -0.952857
 H        -0.099410        -1.325712        -0.608010
 H        -1.045543         0.065790         0.292744
 H         1.705391        -1.404107         2.106061
