19
Iteration:  1727charge 0 multiplicity 1
 C         3.781083         1.321565         2.884394
 C         3.038070         0.961099         1.629979
 O         3.410240        -0.426180         1.316563
 C         2.528392        -0.291638         0.086356
 C         2.653884         1.291809         0.190163
 C         1.589849         1.234120         1.319443
 C         1.140431        -0.231787         0.780773
 C        -0.072890        -0.235335        -0.188504
 O         0.927824        -1.067462         1.827973
 H         3.704862         0.506648         3.613650
 H         4.914884         1.325533         2.917188
 H         3.257735         2.124844         3.374979
 H         2.691781        -1.051940        -0.690204
 H         2.925917         1.986445        -0.541686
 H         0.981580         2.064536         1.819943
 H         0.206256        -0.108509        -1.321810
 H        -0.411014        -1.204917        -0.202079
 H        -0.879787         0.423930         0.065730
 H         1.713468        -1.017902         2.300708
