19
Iteration:   877charge 0 multiplicity 1
 C         3.766806         1.539060         2.723139
 C         3.145401         0.851858         1.650923
 O         3.477272        -0.494322         1.362586
 C         2.556971        -0.396894         0.135694
 C         2.683800         1.259170         0.240901
 C         1.659548         1.231243         1.316158
 C         1.099371        -0.229207         0.790557
 C        -0.052134        -0.149833        -0.212445
 O         0.697741        -1.118015         1.891677
 H         3.344950         1.174586         3.673123
 H         4.874798         1.583878         2.575172
 H         3.514318         2.684290         2.649004
 H         2.814203        -1.057228        -0.598674
 H         3.122329         2.028563        -0.423332
 H         1.197780         1.970211         1.952430
 H        -1.036496        -0.200069         0.324924
 H         0.033901         0.710520        -0.853701
 H         0.030996        -0.970715        -1.045504
 H         1.402614        -1.653400         2.028537
