19
Iteration:  4890
 C         3.770103         1.630380         2.752879
 C         3.047454         0.893707         1.680847
 O         3.351324        -0.509653         1.582471
 C         2.561528        -0.411120         0.203818
 C         2.800300         1.104949         0.219532
 C         1.652157         1.258526         1.110463
 C         1.111316        -0.150791         0.825795
 C        -0.002499        -0.202494        -0.337111
 O         0.737472        -1.092910         1.821019
 H         3.937040         0.750216         3.578666
 H         4.780341         2.040353         2.514632
 H         3.101322         2.282952         3.362293
 H         2.907800        -1.191914        -0.471805
 H         3.152547         1.752433        -0.535176
 H         0.933026         2.116784         1.260331
 H         0.479605         0.167460        -1.414909
 H        -0.211013        -1.239586        -0.360317
 H        -0.914217         0.365246        -0.206280
 H         1.541107        -1.140078         2.434398
