19
Iteration:  3538
 C         3.728927         1.596583         2.937268
 C         3.139063         0.920580         1.717235
 O         3.358423        -0.451173         1.314397
 C         2.593148        -0.262142         0.035025
 C         2.721900         1.297711         0.255004
 C         1.620077         1.122544         1.281273
 C         1.145374        -0.245069         0.704956
 C        -0.117594        -0.305776        -0.166392
 O         0.865075        -1.152751         1.820790
 H         3.048027         1.440786         3.665566
 H         4.652609         1.056661         2.961368
 H         3.909309         2.656866         3.005237
 H         2.824943        -0.787207        -0.920415
 H         3.067537         1.973288        -0.634104
 H         0.985448         1.932279         1.600000
 H         0.034656         0.270314        -0.980580
 H        -0.355736        -1.298184        -0.496885
 H        -1.044695         0.037694         0.533091
 H         1.751684        -1.372196         2.015528
