19
Iteration:   475
 C         3.995963         1.717039         2.560017
 C         3.111967         0.879191         1.701976
 O         3.505459        -0.410186         1.422620
 C         2.474572        -0.385889         0.266393
 C         2.631701         1.160831         0.245816
 C         1.621600         1.083907         1.425183
 C         1.063880        -0.263157         0.886098
 C         0.070706        -0.007798        -0.248676
 O         0.567348        -1.302728         1.689977
 H         3.937607         1.317243         3.552933
 H         5.098153         1.741339         2.297450
 H         3.477423         2.731040         2.658740
 H         2.655475        -1.139731        -0.489382
 H         2.756792         1.972857        -0.454979
 H         1.020388         1.903091         2.021738
 H        -0.876886        -0.411304         0.073752
 H        -0.131857         0.952310        -0.644071
 H         0.513604        -0.632090        -1.129419
 H         1.152832        -1.505712         2.357447
