19
Iteration:  1086charge 0 multiplicity 1
 C         3.854828         1.540506         2.745518
 C         3.045531         0.935827         1.673765
 O         3.273253        -0.500094         1.397002
 C         2.546710        -0.327371         0.196836
 C         2.780016         1.196883         0.231049
 C         1.560170         1.173387         1.246734
 C         1.107389        -0.133350         0.783948
 C        -0.091328        -0.193254        -0.177209
 O         0.888930        -1.147794         1.802680
 H         3.438747         1.176319         3.697831
 H         4.957287         1.261247         2.494087
 H         3.868845         2.604069         2.837232
 H         2.767741        -1.094575        -0.567480
 H         3.086370         2.071175        -0.251626
 H         1.215096         2.102534         1.826658
 H        -0.983338        -0.222518         0.365443
 H        -0.066208         0.573433        -1.004607
 H         0.151705        -1.119113        -0.868592
 H         1.739440        -1.557078         1.955522
