19
Iteration:   603
 C         3.786426         1.440948         2.875397
 C         3.092704         0.918790         1.572422
 O         3.403337        -0.417250         1.332042
 C         2.576839        -0.333703         0.158899
 C         2.720362         1.232858         0.123712
 C         1.591548         1.214429         1.270722
 C         1.162868        -0.223177         0.817706
 C        -0.100736        -0.176571        -0.139585
 O         0.860574        -1.119838         1.844358
 H         3.165415         0.802198         3.587668
 H         4.827575         1.237783         2.944421
 H         3.562004         2.483904         3.071979
 H         2.675156        -1.085636        -0.610766
 H         2.720226         1.950871        -0.685343
 H         0.984102         1.935985         1.734971
 H        -0.919172         0.460550         0.240373
 H         0.249892         0.180874        -1.145686
 H        -0.693475        -1.112747        -0.191922
 H         1.671105        -1.398396         2.162945
