19
Iteration:  1479
 C         3.881848         1.560267         2.700084
 C         3.092540         0.868035         1.651593
 O         3.263120        -0.602162         1.445096
 C         2.556412        -0.314164         0.135174
 C         2.721786         1.254786         0.351735
 C         1.576645         1.197968         1.288688
 C         1.139744        -0.182313         0.741246
 C        -0.101784        -0.187891        -0.214331
 O         0.888992        -1.073227         1.802612
 H         3.439991         1.290449         3.698594
 H         4.979423         1.238376         2.614987
 H         3.954408         2.673730         2.529750
 H         2.810840        -1.078942        -0.671955
 H         2.978605         1.993152        -0.485802
 H         1.043702         1.835918         1.939649
 H        -0.930461        -0.753281         0.282495
 H        -0.551758         0.814234        -0.627296
 H         0.108260        -0.732951        -1.192796
 H         1.741392        -1.097020         2.188027
