19
Iteration:  3773
 C         3.787897         1.495002         2.882028
 C         3.038393         0.938438         1.680785
 O         3.376210        -0.435935         1.266457
 C         2.601184        -0.260557         0.130709
 C         2.691237         1.241154         0.193973
 C         1.591458         1.163232         1.292447
 C         1.070633        -0.239020         0.819346
 C         0.004709        -0.281271        -0.281803
 O         0.859978        -1.134973         1.921628
 H         3.503598         1.022321         3.872130
 H         4.874347         1.597375         2.751139
 H         3.547494         2.588337         3.108680
 H         2.784537        -0.821516        -0.778581
 H         2.752042         2.018523        -0.486969
 H         1.046698         2.064212         1.619156
 H         0.216818         0.443052        -1.246791
 H        -0.178507        -1.266975        -0.903265
 H        -0.983233        -0.171351         0.142493
 H         1.649352        -1.283984         2.389828
