19
Iteration:  1225
 C         3.968250         1.567954         2.640916
 C         3.079473         0.962049         1.713287
 O         3.322327        -0.404474         1.436994
 C         2.514531        -0.390332         0.277065
 C         2.681750         1.201852         0.278238
 C         1.616892         1.202450         1.312164
 C         1.121456        -0.250177         0.752984
 C        -0.042064        -0.059688        -0.211035
 O         0.765147        -1.330559         1.718238
 H         3.826226         1.182741         3.650771
 H         5.033323         1.421835         2.292710
 H         3.820978         2.664235         2.791397
 H         2.865213        -1.167521        -0.390404
 H         3.112558         1.851130        -0.496408
 H         0.763686         2.000720         1.654524
 H        -1.039327        -0.048180         0.412676
 H         0.035969         0.853820        -0.848214
 H        -0.143857        -0.865818        -1.021866
 H         1.454605        -1.208443         2.394400
