19
Iteration:  2292charge 0 multiplicity 1
 C         4.028341         1.866220         2.473426
 C         3.050842         0.838033         1.792942
 O         3.366504        -0.526457         1.550589
 C         2.651926        -0.340095         0.303334
 C         2.637935         1.136094         0.372685
 C         1.545631         1.091818         1.373449
 C         1.058422        -0.282382         0.762991
 C         0.016807         0.007113        -0.198722
 O         0.630217        -1.371646         1.546395
 H         4.512540         1.408015         3.288487
 H         4.792007         2.155118         1.790255
 H         3.495021         2.716574         2.985519
 H         3.128590        -0.597807        -0.614501
 H         3.033066         1.966075        -0.321600
 H         0.968603         1.798693         1.955092
 H         0.408435         0.901491        -0.825314
 H        -0.172107        -0.824483        -0.875226
 H        -0.803555         0.324628         0.350586
 H         1.216109        -1.560708         2.242791
