19
Iteration:  2425
 C         3.692108         1.486866         2.814225
 C         3.045025         0.917396         1.659747
 O         3.331766        -0.535147         1.442236
 C         2.602812        -0.264563         0.141278
 C         2.711415         1.255133         0.187923
 C         1.594804         1.224617         1.283257
 C         1.147852        -0.181328         0.789766
 C        -0.100768        -0.175265        -0.150300
 O         1.001360        -1.211236         1.708624
 H         2.987948         1.308773         3.639489
 H         4.659164         1.110697         3.023880
 H         3.721267         2.572196         2.724847
 H         2.716423        -0.823519        -0.823611
 H         2.951761         2.075927        -0.466031
 H         1.151561         2.162421         1.786633
 H        -0.007963         0.309374        -1.054368
 H        -0.435905        -1.230004        -0.316508
 H        -1.002888         0.253803         0.436939
 H         2.032418        -1.217547         2.007217
