19
Iteration:   765charge 0 multiplicity 1
 C         3.825048         1.771315         2.547062
 C         3.133058         0.862278         1.668643
 O         3.525769        -0.563228         1.350709
 C         2.552312        -0.304148         0.234956
 C         2.629321         1.169482         0.300457
 C         1.608208         1.061254         1.584117
 C         1.123522        -0.265464         0.876518
 C         0.099600        -0.015165        -0.293878
 O         0.560309        -1.279058         1.688833
 H         3.701335         1.503170         3.648182
 H         4.814241         1.891089         2.213723
 H         3.523846         2.821129         2.411752
 H         2.741204        -1.097375        -0.522196
 H         3.014090         2.018156        -0.298489
 H         0.886743         1.774315         2.107026
 H        -0.769102         0.626495         0.119104
 H         0.760038         0.499607        -1.074483
 H        -0.451629        -0.803359        -0.621204
 H         1.163993        -1.387759         2.454410
