19
Iteration:   776
 C         3.849125         1.732165         2.602264
 C         3.144522         0.865219         1.621676
 O         3.442135        -0.474630         1.369389
 C         2.553439        -0.428727         0.180700
 C         2.652790         1.248903         0.345373
 C         1.620857         1.009292         1.468236
 C         1.123594        -0.243419         0.880607
 C         0.084171        -0.016819        -0.238012
 O         0.610083        -1.268167         1.724110
 H         3.717637         1.290688         3.635152
 H         4.894475         1.682228         2.476003
 H         3.372973         2.726374         2.566383
 H         2.798353        -1.003612        -0.733528
 H         2.728483         2.134079        -0.295839
 H         1.034112         1.898493         1.854182
 H        -0.750088         0.749008        -0.071699
 H         0.578883         0.391986        -1.190773
 H        -0.193280        -0.969393        -0.496833
 H         1.056364        -1.287848         2.517896
