19
Iteration:  4005
 C         3.692793         1.708325         2.912457
 C         3.055472         0.957788         1.702333
 O         3.422102        -0.469511         1.280572
 C         2.605715        -0.281514         0.076520
 C         2.709411         1.264820         0.286631
 C         1.612626         1.072548         1.328968
 C         1.140381        -0.287435         0.772084
 C        -0.087912        -0.147767        -0.219705
 O         0.859098        -1.306770         1.759427
 H         3.076967         1.611405         3.715722
 H         4.743349         1.442652         3.014242
 H         3.629647         2.713886         2.505053
 H         2.860851        -1.107671        -0.623751
 H         3.121010         2.048615        -0.313954
 H         0.949379         1.809995         1.762296
 H         0.049944         0.620259        -0.887253
 H        -0.076495        -1.109241        -0.731078
 H        -0.993702         0.086007         0.534989
 H         1.817202        -1.404109         2.152454
