19
Iteration:  3876
 C         3.952905         1.799433         2.519956
 C         3.046701         0.961317         1.730535
 O         3.457267        -0.411338         1.471035
 C         2.494454        -0.335714         0.302744
 C         2.581674         1.203234         0.349720
 C         1.505794         0.999799         1.539295
 C         1.075705        -0.277356         0.803835
 C         0.124595        -0.068968        -0.360566
 O         0.714504        -1.393416         1.616046
 H         3.957586         1.308817         3.533448
 H         5.046939         1.826584         2.295270
 H         3.611710         2.823724         2.773613
 H         2.806513        -1.060663        -0.488439
 H         2.668700         2.015687        -0.429325
 H         0.878123         1.745163         1.929768
 H         0.679528         0.596007        -0.899652
 H        -0.141735        -0.966410        -0.864985
 H        -0.767562         0.478975        -0.002811
 H         1.539751        -1.544331         2.221898
