19
Iteration:  4182charge 0 multiplicity 1
 C         3.645469         1.516403         2.942418
 C         3.019751         0.966736         1.702180
 O         3.387043        -0.448417         1.290086
 C         2.615101        -0.233018         0.083582
 C         2.746268         1.298454         0.192360
 C         1.616899         1.159440         1.221730
 C         1.124174        -0.243808         0.796128
 C        -0.038076        -0.278368        -0.227278
 O         0.943815        -1.182238         1.876391
 H         3.287021         0.844337         3.707029
 H         4.708013         1.447388         2.867797
 H         3.231560         2.538342         3.021749
 H         2.771003        -0.910836        -0.754275
 H         2.863884         2.044510        -0.576648
 H         0.923059         1.837320         1.721133
 H         0.029741         0.407912        -1.149129
 H        -0.224046        -1.275727        -0.597522
 H        -1.008086        -0.121581         0.358188
 H         1.794649        -1.208789         2.288346
