19
Iteration:  1450
 C         3.942566         1.587212         2.654461
 C         3.077455         0.904493         1.679280
 O         3.448397        -0.415836         1.332883
 C         2.535112        -0.379575         0.172715
 C         2.657780         1.156235         0.321496
 C         1.605687         1.179960         1.369689
 C         1.123035        -0.251036         0.879902
 C         0.009224        -0.095532        -0.289750
 O         0.615117        -1.219829         1.815696
 H         3.639664         1.608327         3.717710
 H         4.877741         1.123059         2.676920
 H         4.026034         2.723982         2.466728
 H         2.748054        -1.124345        -0.519646
 H         2.920241         1.858245        -0.479453
 H         1.084571         2.136710         1.834449
 H        -0.904430        -0.505701        -0.028502
 H        -0.397236         0.928020        -0.458932
 H         0.521244        -0.571930        -1.168593
 H         1.467856        -1.492069         2.216442
