19
Iteration:    76
 C         4.096250         1.749585         2.559808
 C         3.190656         0.960041         1.569317
 O         3.474125        -0.464844         1.390014
 C         2.473975        -0.489398         0.340960
 C         2.607075         1.080279         0.252597
 C         1.603808         1.139727         1.438458
 C         1.016913        -0.265364         0.904009
 C         0.145512        -0.007820        -0.253117
 O         0.443735        -1.244493         1.750371
 H         3.973571         1.491987         3.661330
 H         5.112927         1.556106         2.295364
 H         3.806293         2.827226         2.482507
 H         2.706340        -1.317985        -0.318811
 H         2.734473         1.751057        -0.582573
 H         1.059143         2.043027         1.511318
 H         0.190203         1.032327        -0.504533
 H         0.288599        -0.587673        -1.102755
 H        -0.860983        -0.340896         0.100975
 H         1.100620        -1.379487         2.555527
