19
Iteration:  1388
 C         4.003665         1.814342         2.447457
 C         3.102506         0.846435         1.754902
 O         3.452434        -0.529067         1.468394
 C         2.565822        -0.394837         0.256464
 C         2.634619         1.190630         0.413741
 C         1.567291         1.109035         1.456254
 C         1.032521        -0.305826         0.794303
 C         0.048312         0.052355        -0.251922
 O         0.570548        -1.304160         1.655011
 H         4.239358         1.418971         3.434381
 H         4.925601         1.912591         1.786784
 H         3.544910         2.794352         2.528093
 H         2.920688        -1.175888        -0.492904
 H         3.227989         1.817694        -0.223027
 H         1.063725         1.984501         2.084336
 H        -1.068657         0.203266         0.272275
 H         0.439517         0.848534        -0.837562
 H        -0.031960        -0.806154        -0.898513
 H         1.319759        -1.684450         2.008994
