19
Iteration:  1835charge 0 multiplicity 1
 C         3.941161         1.805648         2.522754
 C         3.139049         0.940609         1.625561
 O         3.463978        -0.430981         1.483354
 C         2.515826        -0.451396         0.363846
 C         2.492017         1.129959         0.272440
 C         1.642251         1.004056         1.658632
 C         1.140408        -0.248221         0.904277
 C         0.132543         0.092852        -0.230982
 O         0.577440        -1.381543         1.471791
 H         3.821810         1.381678         3.553094
 H         5.082521         1.481938         2.251438
 H         3.960780         2.886073         2.231772
 H         2.749192        -1.179251        -0.398418
 H         2.414105         2.036814        -0.356823
 H         0.865527         1.891856         1.828169
 H         0.146271         1.304826        -0.425224
 H         0.340935        -0.526509        -1.223079
 H        -0.952795        -0.036152        -0.038264
 H         1.281808        -1.796206         1.987663
