19
Iteration:   573charge 0 multiplicity 1
 C         3.904790         1.573688         2.692015
 C         3.019881         0.898234         1.718760
 O         3.324271        -0.490457         1.422098
 C         2.575744        -0.304962         0.165924
 C         2.747783         1.188148         0.211572
 C         1.573615         1.206083         1.336557
 C         1.104960        -0.231474         0.783331
 C        -0.102008        -0.113679        -0.189939
 O         0.863033        -1.235228         1.762782
 H         3.663189         1.156715         3.652548
 H         4.984383         1.399199         2.441555
 H         3.714387         2.702781         2.834278
 H         2.797612        -1.008677        -0.603065
 H         2.839945         2.042151        -0.458327
 H         0.951412         2.162177         1.701310
 H        -0.878604         0.449703         0.245754
 H         0.151084         0.360773        -1.071094
 H        -0.330321        -1.162064        -0.587180
 H         1.628238        -1.351316         2.354161
