19
Iteration:  3299charge 0 multiplicity 1
 C         3.733490         1.452053         2.882752
 C         3.101864         0.935039         1.652224
 O         3.362314        -0.436278         1.355579
 C         2.585324        -0.295706         0.112462
 C         2.726129         1.265172         0.207218
 C         1.607968         1.179113         1.284446
 C         1.079657        -0.200285         0.762132
 C        -0.077352        -0.299980        -0.241319
 O         0.908818        -1.100463         1.844663
 H         3.444955         0.747274         3.670000
 H         4.873103         1.442319         2.898361
 H         3.349485         2.502969         3.111005
 H         2.902955        -0.968775        -0.712281
 H         2.710250         2.096777        -0.427184
 H         0.976459         2.022093         1.662588
 H         0.064890         0.432718        -0.947977
 H        -0.032388        -1.130361        -0.902345
 H        -1.106512        -0.256905         0.344623
 H         1.814064        -0.983397         2.264068
