19
Iteration:  2230
 C         3.795713         1.573408         2.742068
 C         3.118804         0.921739         1.636772
 O         3.394051        -0.447322         1.298114
 C         2.495767        -0.361755         0.167553
 C         2.691019         1.309924         0.261404
 C         1.616383         1.125148         1.306562
 C         1.115663        -0.220883         0.902087
 C         0.094982        -0.126870        -0.277730
 O         0.717737        -1.268689         1.846400
 H         3.287669         1.151573         3.670614
 H         4.812695         1.206281         2.917145
 H         3.871735         2.673880         2.587100
 H         2.881653        -1.077878        -0.590855
 H         2.881336         2.182565        -0.295846
 H         0.983248         1.920039         1.779027
 H         0.331485         0.526562        -1.058222
 H        -0.186812        -1.134646        -0.646397
 H        -0.878121         0.315406         0.201861
 H         1.501045        -1.221573         2.342052
