19
Iteration:  2446charge 0 multiplicity 1
 C         3.786675         1.590321         2.857722
 C         3.088860         0.964887         1.702760
 O         3.415772        -0.418017         1.352798
 C         2.565133        -0.345323         0.149537
 C         2.725126         1.233545         0.216413
 C         1.549489         1.091888         1.291368
 C         1.122860        -0.269470         0.744443
 C        -0.074694        -0.086351        -0.181624
 O         0.841750        -1.272516         1.726960
 H         3.393095         1.255806         3.810170
 H         4.813431         1.397733         2.815839
 H         3.787755         2.684908         2.774509
 H         2.953412        -1.130941        -0.579515
 H         2.948784         2.088444        -0.410860
 H         0.772347         1.817507         1.773177
 H         0.210281         0.641625        -0.895802
 H        -0.399830        -1.057395        -0.597361
 H        -0.999324         0.162998         0.431669
 H         1.657459        -1.231794         2.313212
