19
Iteration:  3240charge 0 multiplicity 1
 C         3.919854         1.750422         2.680401
 C         3.105895         0.905703         1.687026
 O         3.425894        -0.490970         1.390748
 C         2.520409        -0.314368         0.235263
 C         2.559205         1.219767         0.294732
 C         1.587865         1.063788         1.517169
 C         1.113667        -0.288069         0.788950
 C         0.071241        -0.087416        -0.356107
 O         0.702936        -1.311683         1.707358
 H         4.043595         1.161045         3.679100
 H         4.908278         1.882171         2.238878
 H         3.508058         2.697735         2.975498
 H         2.820331        -0.886254        -0.632656
 H         2.856233         2.022633        -0.494188
 H         0.952580         1.747962         2.025424
 H         0.504793         0.629339        -1.111598
 H        -0.247844        -1.124541        -0.618774
 H        -0.797021         0.454237        -0.167649
 H         1.264535        -1.013773         2.453581
