19
Iteration:  2029
 C         4.012858         1.667574         2.584326
 C         3.056552         0.998783         1.693736
 O         3.363640        -0.460875         1.470693
 C         2.573364        -0.295473         0.224023
 C         2.590303         1.244722         0.374924
 C         1.520350         1.071311         1.494709
 C         1.076528        -0.291044         0.809316
 C         0.047750        -0.031483        -0.248611
 O         0.748437        -1.412695         1.616189
 H         4.007193         1.329070         3.607160
 H         4.951381         1.330036         2.039049
 H         3.907273         2.731563         2.534354
 H         2.744209        -0.987857        -0.643563
 H         2.777199         2.036739        -0.320304
 H         0.927600         2.061955         1.785624
 H         0.379930         0.842737        -0.871442
 H        -0.009511        -0.866401        -0.970987
 H        -0.914852         0.098842         0.037221
 H         1.314179        -1.245567         2.315936
