19
Iteration:   524
 C         3.992343         1.750006         2.505418
 C         3.120240         0.917392         1.735027
 O         3.462315        -0.487107         1.413619
 C         2.543704        -0.393851         0.320319
 C         2.646069         1.205676         0.356310
 C         1.589575         1.087791         1.482557
 C         0.994096        -0.268148         0.890437
 C         0.110421        -0.057572        -0.284523
 O         0.565239        -1.316970         1.632936
 H         4.158209         1.666285         3.638710
 H         4.901295         1.607578         1.914276
 H         3.663234         2.723639         2.311695
 H         2.682835        -0.967027        -0.644514
 H         2.801668         1.817349        -0.556195
 H         1.056660         1.916194         1.863293
 H        -0.919919        -0.072809         0.158678
 H         0.030716         1.060264        -0.569333
 H         0.337860        -0.526118        -1.188495
 H         1.298739        -1.530515         2.353718
