19
Iteration:  4275
 C         3.883322         1.793585         2.553990
 C         3.022117         0.976636         1.710728
 O         3.457658        -0.350267         1.499435
 C         2.600093        -0.373316         0.248348
 C         2.548683         1.168467         0.323781
 C         1.542718         0.976741         1.509901
 C         1.146408        -0.281349         0.882382
 C         0.056468        -0.045509        -0.310265
 O         0.739549        -1.393027         1.546385
 H         3.231120         2.077857         3.386235
 H         4.682965         1.186633         3.079361
 H         4.269684         2.704490         2.128377
 H         2.802191        -1.157571        -0.512627
 H         2.832219         2.018668        -0.309934
 H         0.922026         1.848503         1.926084
 H         0.423253         0.897082        -0.788260
 H         0.057135        -0.939000        -1.012237
 H        -0.944179        -0.057097         0.160248
 H         1.385113        -1.539286         2.269153
