19
Iteration:  3748
 C         3.806665         1.439728         2.811083
 C         3.112185         0.907516         1.613117
 O         3.477103        -0.416774         1.338277
 C         2.540890        -0.258928         0.214246
 C         2.651735         1.352925         0.258626
 C         1.517106         1.176468         1.288539
 C         1.101665        -0.187581         0.756645
 C         0.011498        -0.358124        -0.244088
 O         0.787993        -1.049959         1.804416
 H         3.701579         0.560754         3.510328
 H         4.849507         1.730372         2.715813
 H         3.428800         2.212421         3.423890
 H         2.827644        -0.944945        -0.602657
 H         3.072177         2.177394        -0.441070
 H         0.868613         1.769544         1.864557
 H         0.111930        -0.252750        -1.456877
 H        -0.149183        -1.520375        -0.211897
 H        -0.994673        -0.167193         0.186118
 H         1.559435        -1.207883         2.430331
