19
Iteration:   849
 C         3.867177         1.567743         2.812305
 C         3.081523         0.923194         1.687743
 O         3.274928        -0.589749         1.364574
 C         2.522116        -0.276173         0.075448
 C         2.764598         1.158679         0.259900
 C         1.599809         1.218550         1.291167
 C         1.075167        -0.171634         0.745349
 C        -0.066529        -0.284739        -0.163488
 O         0.876665        -1.029443         1.799361
 H         3.560690         0.933724         3.673214
 H         4.967103         1.405527         2.739245
 H         3.536688         2.544525         3.007750
 H         2.822262        -0.967428        -0.836461
 H         3.305405         1.970224        -0.275198
 H         0.976655         2.046264         1.628092
 H        -0.949345        -0.394122         0.436323
 H        -0.255694         0.559276        -0.881454
 H         0.230641        -1.157696        -0.768122
 H         1.666238        -0.920973         2.235741
