19
Iteration:  3108
 C         3.783375         1.452144         2.834718
 C         3.051017         0.939221         1.655264
 O         3.446247        -0.466931         1.270645
 C         2.550110        -0.282930         0.154501
 C         2.694781         1.266926         0.292960
 C         1.572637         1.205817         1.288386
 C         1.067100        -0.164809         0.784998
 C        -0.044244        -0.243454        -0.246893
 O         0.861192        -1.141211         1.874542
 H         3.523905         0.730265         3.693996
 H         4.870341         1.571539         2.766488
 H         3.310593         2.430605         3.006595
 H         2.649735        -0.985223        -0.674430
 H         3.218173         1.885934        -0.335995
 H         0.942732         2.040381         1.644564
 H         0.177613         0.266015        -1.251492
 H        -0.193670        -1.301964        -0.613458
 H        -0.942752         0.067964         0.192544
 H         1.845002        -1.306034         2.166464
