19
Iteration:  1251
 C         3.828924         1.538456         2.756633
 C         3.105127         0.920075         1.681992
 O         3.314157        -0.544886         1.391622
 C         2.541223        -0.282170         0.134799
 C         2.721379         1.179512         0.246378
 C         1.634085         1.197041         1.272644
 C         1.130450        -0.140591         0.789385
 C        -0.077038        -0.200943        -0.202676
 O         0.847812        -1.097967         1.833874
 H         3.397343         1.251598         3.750721
 H         4.902107         1.157914         2.697036
 H         3.934289         2.607854         2.738809
 H         2.762485        -0.963878        -0.751931
 H         2.853681         1.953329        -0.496728
 H         1.074174         1.825658         1.849572
 H        -0.896012        -0.431690         0.458869
 H        -0.348868         0.706646        -0.938678
 H        -0.129592        -1.142116        -0.940519
 H         1.666227        -1.473175         1.963568
