19
Iteration:  3642charge 0 multiplicity 1
 C         3.951370         1.904840         2.636847
 C         3.120934         0.926465         1.677412
 O         3.565916        -0.439420         1.497344
 C         2.591588        -0.345168         0.275216
 C         2.571575         1.129227         0.323685
 C         1.617175         1.020670         1.510713
 C         1.047190        -0.302454         0.794476
 C        -0.032592        -0.032934        -0.271446
 O         0.599986        -1.384798         1.534901
 H         3.598423         1.809046         3.751998
 H         4.970218         1.498842         2.533460
 H         3.824935         2.915536         2.161832
 H         2.909871        -1.157387        -0.389494
 H         2.686570         2.062598        -0.314945
 H         0.990115         1.735514         1.939643
 H        -0.159353         0.978544        -0.787069
 H         0.076885        -0.949103        -0.930194
 H        -0.972858        -0.110480         0.110847
 H         1.430117        -1.475802         2.131682
