19
Iteration:  3453charge 0 multiplicity 1
 C         3.918730         1.715889         2.605819
 C         3.002075         0.899917         1.681793
 O         3.521475        -0.433683         1.468019
 C         2.555691        -0.306078         0.275668
 C         2.607577         1.225104         0.367479
 C         1.521898         1.098091         1.452985
 C         1.073741        -0.204828         0.805986
 C         0.078562        -0.169779        -0.274168
 O         0.700695        -1.327122         1.569370
 H         4.363168         0.920060         3.342208
 H         4.903718         2.131625         2.105527
 H         3.352884         2.523933         3.158011
 H         2.751033        -0.873580        -0.630797
 H         3.136147         1.995726        -0.317105
 H         0.827814         1.846756         1.752085
 H         0.171382         0.656030        -0.947887
 H        -0.049991        -1.172686        -0.645677
 H        -0.896644         0.133579         0.261674
 H         1.200696        -1.356289         2.421537
