19
Iteration:  2892
 C         3.754996         1.501632         2.813570
 C         3.085203         0.910105         1.652549
 O         3.448023        -0.481621         1.337593
 C         2.557032        -0.289905         0.153395
 C         2.685875         1.262855         0.230124
 C         1.612150         1.105580         1.355449
 C         1.149574        -0.198740         0.728088
 C        -0.097870        -0.174898        -0.179005
 O         0.847218        -1.124147         1.774662
 H         3.600336         0.735167         3.592643
 H         4.705176         1.932029         2.602745
 H         3.174538         2.398837         3.023029
 H         2.997805        -1.028225        -0.546899
 H         2.983364         1.938238        -0.640451
 H         0.997800         1.820060         2.011427
 H         0.074405         0.407945        -1.027742
 H        -0.329770        -1.253183        -0.333851
 H        -1.126303         0.208016         0.254496
 H         1.657778        -1.126369         2.298967
