19
Iteration:    58
 C         4.140331         1.756942         2.468505
 C         3.058947         0.956690         1.707505
 O         3.399388        -0.512242         1.534273
 C         2.517730        -0.437476         0.313261
 C         2.634462         1.080510         0.214124
 C         1.674735         1.114116         1.389603
 C         1.108087        -0.206676         0.938696
 C         0.006075        -0.023466        -0.281248
 O         0.493666        -1.220115         1.718990
 H         4.118264         1.525678         3.484147
 H         5.169979         1.514790         1.998360
 H         4.000743         2.788215         2.412313
 H         2.695200        -1.157649        -0.451358
 H         2.619432         1.769341        -0.648723
 H         1.150726         1.888775         1.897237
 H        -0.303762         1.036140        -0.523572
 H         0.532513        -0.449708        -1.221964
 H        -0.832125        -0.610817        -0.096312
 H         1.280359        -1.740563         2.190344
