19
Iteration:  3634
 C         3.922061         1.824612         2.571927
 C         3.078513         0.903625         1.752558
 O         3.609181        -0.436726         1.487425
 C         2.581111        -0.378717         0.256662
 C         2.567671         1.194136         0.294610
 C         1.533736         1.044842         1.559490
 C         1.096739        -0.208472         0.835458
 C        -0.008328        -0.049592        -0.290309
 O         0.598698        -1.380659         1.549073
 H         3.516075         1.979901         3.566711
 H         4.910672         1.403613         2.570986
 H         4.015652         2.907811         2.205521
 H         3.049452        -1.031775        -0.532040
 H         2.804412         1.847485        -0.608692
 H         0.958094         1.847461         2.030565
 H         0.054587         0.807357        -0.864742
 H         0.162778        -0.952637        -0.846684
 H        -1.044717        -0.191337         0.214733
 H         1.402420        -1.774000         2.004771
