19
Iteration:  4646charge 0 multiplicity 1
 C         3.797955         1.574376         2.875930
 C         3.115373         0.933840         1.678475
 O         3.288437        -0.440873         1.517542
 C         2.571912        -0.387652         0.200657
 C         2.801026         1.273402         0.272343
 C         1.537293         1.195117         1.070753
 C         1.072851        -0.189372         0.759252
 C        -0.086978        -0.264936        -0.295937
 O         0.892923        -1.141618         1.797015
 H         4.070755         2.597555         2.593736
 H         3.071255         1.586647         3.814742
 H         4.708657         0.843944         3.092866
 H         3.026140        -0.981574        -0.600459
 H         3.253530         1.876186        -0.450460
 H         0.904252         2.086190         1.367770
 H         0.082909         0.361223        -1.084252
 H        -0.078447        -1.333785        -0.617558
 H        -1.044084        -0.089386         0.291570
 H         1.803429        -1.500198         1.911378
