19
Iteration:  4331
 C         3.770171         1.832678         2.655156
 C         3.120590         0.943309         1.686412
 O         3.486193        -0.440808         1.474193
 C         2.576590        -0.374983         0.266067
 C         2.601060         1.243727         0.332576
 C         1.585618         0.984515         1.416085
 C         1.159502        -0.251820         0.803210
 C         0.033309        -0.071353        -0.285821
 O         0.713554        -1.362741         1.593959
 H         3.088609         2.115156         3.383304
 H         4.653681         1.233060         2.984619
 H         4.123727         2.660703         2.018083
 H         2.848611        -1.070447        -0.543547
 H         2.809236         1.875347        -0.499480
 H         0.998775         1.666123         2.005368
 H         0.036620         0.881503        -0.710985
 H        -0.034925        -0.882498        -1.048072
 H        -0.806259        -0.092535         0.524770
 H         1.342690        -1.471875         2.396201
