19
Iteration:  1314charge 0 multiplicity 1
 C         3.819203         1.469640         2.840843
 C         3.107851         0.930052         1.597686
 O         3.413342        -0.418874         1.316563
 C         2.561171        -0.389459         0.130645
 C         2.668046         1.215219         0.203807
 C         1.631459         1.150218         1.245101
 C         1.093495        -0.171919         0.822419
 C        -0.065709        -0.195423        -0.145788
 O         0.794296        -1.062877         1.844723
 H         3.361453         0.845404         3.623121
 H         4.904982         1.128613         2.670840
 H         3.624120         2.462888         3.121494
 H         2.805512        -1.075345        -0.766075
 H         2.842597         2.115774        -0.371597
 H         1.028279         1.817347         1.871604
 H        -0.741698         0.562333         0.097062
 H         0.323490         0.147106        -1.143385
 H        -0.342357        -1.225142        -0.251640
 H         1.502396        -1.424492         2.313137
