19
Iteration:   980
 C         3.987136         1.709521         2.547386
 C         3.031752         0.907013         1.729915
 O         3.402029        -0.524124         1.499150
 C         2.484679        -0.317580         0.212022
 C         2.696142         1.190407         0.333267
 C         1.536477         1.101637         1.419482
 C         1.030868        -0.193568         0.836162
 C         0.076245        -0.084404        -0.343540
 O         0.712233        -1.313785         1.707854
 H         4.211523         1.254206         3.536646
 H         5.005226         1.722025         2.072013
 H         3.674447         2.710259         2.633379
 H         2.792717        -1.065044        -0.661071
 H         2.852126         1.863758        -0.444456
 H         1.095410         1.883868         2.168179
 H        -0.631283         0.679194        -0.029207
 H         0.580964         0.452912        -1.206043
 H        -0.588573        -0.894686        -0.522814
 H         1.467357        -1.229393         2.415838
