19
Iteration:  1369
 C         4.017402         1.758169         2.501951
 C         3.069288         0.900439         1.769300
 O         3.311135        -0.592247         1.508074
 C         2.539220        -0.337000         0.279283
 C         2.694256         1.163480         0.307393
 C         1.604792         1.060012         1.482805
 C         1.133639        -0.185073         0.813531
 C        -0.014303        -0.005440        -0.280897
 O         0.694141        -1.279880         1.633977
 H         4.402556         1.370783         3.458512
 H         4.854781         2.107282         1.799223
 H         3.476149         2.642862         2.692035
 H         2.709973        -1.002081        -0.639571
 H         2.782169         2.001650        -0.333639
 H         0.956237         1.809459         1.781905
 H        -0.809484         0.399876         0.238550
 H         0.390253         0.519615        -1.139881
 H        -0.484690        -0.924191        -0.585199
 H         1.516847        -1.500231         2.069088
