19
Iteration:  3850
 C         3.918568         1.815922         2.539973
 C         3.079141         0.986129         1.742455
 O         3.398420        -0.441910         1.509060
 C         2.653674        -0.354342         0.306137
 C         2.607188         1.227433         0.342424
 C         1.582493         1.082987         1.449335
 C         1.164240        -0.276386         0.741762
 C         0.015530        -0.058448        -0.179129
 O         0.638213        -1.481712         1.510910
 H         3.753729         1.761166         3.595085
 H         4.973241         1.628993         2.507857
 H         3.701459         2.879084         2.473182
 H         2.949952        -0.985350        -0.524521
 H         2.839530         1.899747        -0.463970
 H         0.848747         1.908015         1.736377
 H         0.140067         0.836558        -0.867895
 H        -0.209138        -1.028607        -0.667680
 H        -0.813658         0.270873         0.501128
 H         1.392696        -1.746809         2.160074
