19
Iteration:   927
 C         4.001256         1.686656         2.544500
 C         3.155696         0.953022         1.673930
 O         3.408442        -0.471201         1.492476
 C         2.571067        -0.335407         0.320168
 C         2.627068         1.196667         0.308965
 C         1.583659         1.056218         1.407542
 C         1.036326        -0.214932         0.858135
 C         0.002800         0.009918        -0.285759
 O         0.658245        -1.403599         1.641095
 H         3.757449         1.392726         3.580201
 H         4.995588         1.695610         2.244336
 H         3.748650         2.711551         2.430418
 H         2.777325        -1.115645        -0.520988
 H         2.993613         1.915694        -0.368906
 H         0.926272         1.944736         1.802026
 H        -0.822197         0.682482         0.106210
 H         0.518261         0.431731        -1.191177
 H        -0.493475        -0.834794        -0.603541
 H         1.210012        -1.327507         2.543842
