19
Iteration:  2568charge 0 multiplicity 1
 C         3.884960         1.673797         2.725278
 C         3.119132         0.975570         1.721154
 O         3.385741        -0.433550         1.395600
 C         2.537171        -0.324553         0.219899
 C         2.689585         1.251492         0.275622
 C         1.590881         1.087778         1.385161
 C         1.068140        -0.247721         0.804991
 C        -0.010525        -0.038230        -0.228557
 O         0.756375        -1.421330         1.654410
 H         3.776818         1.346534         3.769760
 H         4.903418         1.637415         2.391733
 H         3.619840         2.688848         2.816178
 H         2.843006        -0.929382        -0.689850
 H         2.738889         2.112497        -0.391476
 H         0.922366         1.813548         1.723532
 H         0.313480         0.571969        -1.038152
 H        -0.118499        -1.045420        -0.631453
 H        -0.984201         0.291497         0.286791
 H         1.573118        -1.616831         2.205341
