19
Iteration:  1716
 C         3.726783         1.364266         2.884971
 C         3.106104         0.918483         1.576658
 O         3.426843        -0.465861         1.277302
 C         2.653118        -0.301143         0.125423
 C         2.607891         1.284139         0.215050
 C         1.571205         1.103937         1.324115
 C         1.125628        -0.112676         0.750724
 C        -0.068810        -0.238875        -0.170357
 O         0.872587        -1.049771         1.849178
 H         3.418080         0.469243         3.407508
 H         4.838964         1.601987         2.781977
 H         3.348807         2.252434         3.351385
 H         2.864662        -0.948687        -0.740513
 H         2.777193         2.207483        -0.217594
 H         1.069344         1.984837         1.816554
 H         0.173014        -0.055130        -1.306640
 H        -0.495218        -1.108458         0.121541
 H        -0.751420         0.543771         0.109270
 H         1.723618        -1.172003         2.252132
