19
Iteration:  1514charge 0 multiplicity 1
 C         3.830778         1.547041         2.830583
 C         3.100434         1.004809         1.664140
 O         3.354540        -0.569142         1.365242
 C         2.543116        -0.360065         0.163798
 C         2.797925         1.230219         0.235463
 C         1.614396         1.272062         1.164324
 C         1.102966        -0.145230         0.759871
 C        -0.112496        -0.182363        -0.096908
 O         0.803300        -1.193968         1.779132
 H         3.631692         0.824462         3.692065
 H         4.894695         1.405187         2.654964
 H         3.467059         2.631093         3.199980
 H         2.619838        -1.016261        -0.671292
 H         3.111085         1.822692        -0.615815
 H         1.033956         2.117566         1.753526
 H        -0.999425        -0.233268         0.506483
 H        -0.173576         0.758939        -0.843939
 H         0.034052        -1.214157        -0.635159
 H         1.745784        -1.543334         2.075727
