19
Iteration:  1041charge 0 multiplicity 1
 C         3.782420         1.531833         2.827423
 C         3.122472         0.884260         1.671623
 O         3.450427        -0.487839         1.272394
 C         2.631140        -0.410221         0.126516
 C         2.788963         1.198815         0.219883
 C         1.593269         1.208237         1.284514
 C         1.040088        -0.146794         0.837719
 C        -0.105759        -0.202930        -0.193093
 O         0.737506        -1.075941         1.863234
 H         3.342875         1.106484         3.717435
 H         4.902625         1.565347         2.782040
 H         3.456846         2.595069         2.804688
 H         2.813335        -1.130143        -0.614876
 H         3.190828         1.918816        -0.485495
 H         1.012683         2.052756         1.639494
 H        -0.957033        -0.414189         0.439356
 H        -0.222743         0.663140        -0.822469
 H         0.050632        -1.067661        -0.962277
 H         1.589711        -1.286913         2.122191
