19
Iteration:  1968charge 0 multiplicity 1
 C         3.612389         1.389410         2.895798
 C         3.134872         0.860186         1.612012
 O         3.442860        -0.491044         1.256150
 C         2.641958        -0.274199         0.091860
 C         2.752028         1.327206         0.219878
 C         1.607272         1.126448         1.274631
 C         1.146569        -0.173563         0.736723
 C        -0.163908        -0.203117        -0.106482
 O         0.900128        -1.076808         1.838465
 H         3.140962         1.047391         3.829110
 H         4.724915         1.431288         2.926493
 H         3.357092         2.525135         2.797535
 H         2.713349        -0.901361        -0.746491
 H         3.066714         1.956297        -0.559810
 H         1.051991         1.884855         1.731234
 H        -0.253669         0.537063        -0.992050
 H        -0.359934        -1.210551        -0.472732
 H        -0.891580        -0.111963         0.815849
 H         1.615420        -0.961781         2.539730
