19
Iteration:  3279
 C         3.770720         1.486182         2.881509
 C         3.054783         0.959911         1.657242
 O         3.554716        -0.440635         1.270079
 C         2.563257        -0.293774         0.219947
 C         2.626029         1.259671         0.243227
 C         1.566046         1.170411         1.276188
 C         1.108898        -0.164204         0.775857
 C         0.009532        -0.292987        -0.232082
 O         0.744708        -1.112402         1.813003
 H         3.667685         0.770180         3.681432
 H         4.795967         1.643497         2.501090
 H         3.414026         2.473159         3.262170
 H         2.685547        -0.936066        -0.670986
 H         3.215904         1.879604        -0.430663
 H         0.920851         1.863001         1.793133
 H         0.139945         0.364582        -1.168723
 H        -0.141350        -1.333947        -0.606464
 H        -0.995019         0.003821         0.301033
 H         1.533512        -1.634570         2.228480
