19
Iteration:  4913
 C         3.883629         1.780351         2.633583
 C         3.006747         0.935128         1.722853
 O         3.194383        -0.575117         1.616697
 C         2.632232        -0.428108         0.313158
 C         2.878321         1.120824         0.259283
 C         1.593641         1.147326         1.291447
 C         1.096265        -0.233296         0.743733
 C         0.008806        -0.169802        -0.318945
 O         0.733132        -1.138152         1.654249
 H         4.038078         1.447396         3.781036
 H         4.879581         1.946355         2.125424
 H         3.359445         2.734113         2.740418
 H         2.955467        -1.297331        -0.301582
 H         3.359755         1.812559        -0.491681
 H         0.996432         2.022279         1.706525
 H         0.274616         0.555555        -1.238625
 H        -0.397292        -1.125752        -0.587948
 H        -0.713085         0.436164         0.180810
 H         1.616620        -1.218926         2.100578
