19
Iteration:  4971
 C         3.925837         1.862277         2.596951
 C         3.147820         1.004355         1.634885
 O         3.450915        -0.429442         1.572351
 C         2.543206        -0.482790         0.358383
 C         2.586016         1.073186         0.232467
 C         1.615414         1.032274         1.470128
 C         1.062310        -0.279148         0.885213
 C         0.294994        -0.005542        -0.385938
 O         0.423523        -1.288383         1.607433
 H         3.354737         2.224072         3.444338
 H         4.681475         1.155411         3.041559
 H         4.523731         2.645327         2.061065
 H         2.862187        -1.294603        -0.325767
 H         2.634681         1.783839        -0.583781
 H         1.118669         1.954248         1.687639
 H         0.454453         0.867057        -0.840697
 H         0.365194        -0.887121        -1.171327
 H        -0.719713        -0.281085         0.036169
 H         1.031612        -1.404297         2.361429
