19
Iteration:  2749
 C         4.045947         1.899663         2.616359
 C         3.161850         0.955217         1.718465
 O         3.462740        -0.427122         1.421447
 C         2.524766        -0.413735         0.283227
 C         2.622532         1.163506         0.350028
 C         1.539555         1.077162         1.459360
 C         1.130669        -0.337447         0.904660
 C         0.072766         0.101687        -0.299299
 O         0.508410        -1.540341         1.542021
 H         4.013137         1.660807         3.699710
 H         5.033027         1.923779         2.194638
 H         3.804376         2.976965         2.319136
 H         2.820605        -1.158065        -0.520140
 H         2.649217         1.979760        -0.281825
 H         0.950278         1.775153         1.862168
 H         0.533641         0.936042        -0.831691
 H        -0.305456        -0.848712        -0.778188
 H        -0.795738         0.466049         0.347178
 H         0.992438        -1.863385         2.264944
