19
Iteration:  3555charge 0 multiplicity 1
 C         3.778652         1.529816         2.830982
 C         3.027495         0.981483         1.689243
 O         3.381158        -0.467973         1.327939
 C         2.616569        -0.225771         0.133202
 C         2.695407         1.306050         0.214485
 C         1.543787         1.164973         1.271656
 C         1.162057        -0.223498         0.784546
 C        -0.020423        -0.279087        -0.143533
 O         0.816524        -1.211048         1.763163
 H         3.223786         1.542212         3.886462
 H         4.693625         0.986374         3.192813
 H         4.158642         2.524507         2.465311
 H         2.924800        -0.912196        -0.689966
 H         2.908310         2.250364        -0.310178
 H         0.966998         1.894660         1.839102
 H         0.205370         0.147882        -1.230724
 H        -0.219670        -1.373255        -0.314975
 H        -0.835304         0.149911         0.344077
 H         1.582910        -1.651663         2.073496
