19
Iteration:  4289
 C         3.845422         1.933567         2.625861
 C         3.137320         0.939032         1.689655
 O         3.517872        -0.471326         1.476290
 C         2.553460        -0.362592         0.309242
 C         2.598999         1.231479         0.355206
 C         1.553278         1.030339         1.476367
 C         1.113086        -0.356056         0.734038
 C         0.077224        -0.052306        -0.262892
 O         0.632561        -1.422526         1.582056
 H         3.323968         2.454947         3.446139
 H         4.746163         1.447490         3.059046
 H         4.292789         2.767578         1.996313
 H         2.968534        -0.972017        -0.495025
 H         2.624614         1.977947        -0.409700
 H         0.870785         1.691422         1.968294
 H         0.073699         0.849765        -0.655065
 H         0.017378        -0.720515        -1.077377
 H        -0.912669        -0.011437         0.258944
 H         1.457580        -1.821078         1.933383
