19
Iteration:   761charge 0 multiplicity 1
 C         3.847859         1.794887         2.536874
 C         3.108664         0.868765         1.711380
 O         3.547232        -0.578771         1.343879
 C         2.547855        -0.292153         0.269313
 C         2.610974         1.156149         0.291720
 C         1.599822         1.052608         1.585183
 C         1.092668        -0.257506         0.860106
 C         0.116745        -0.002785        -0.284615
 O         0.548532        -1.284658         1.675807
 H         3.756811         1.631480         3.605337
 H         4.943495         1.928441         2.218182
 H         3.440784         2.777856         2.376803
 H         2.730268        -1.082703        -0.546435
 H         3.063347         1.906328        -0.361639
 H         1.043673         1.686106         2.176136
 H        -0.594867         0.658362         0.151534
 H         0.590679         0.534975        -1.120998
 H        -0.430986        -0.902611        -0.783749
 H         1.241699        -1.438744         2.417175
