19
Iteration:  4320
 C         3.763540         1.906545         2.611588
 C         3.100234         0.914531         1.694741
 O         3.515533        -0.438843         1.433808
 C         2.569829        -0.361916         0.228515
 C         2.745525         1.215297         0.329959
 C         1.589704         1.047510         1.517140
 C         1.118780        -0.357559         0.771392
 C         0.032465        -0.090015        -0.186123
 O         0.613434        -1.393488         1.561293
 H         3.189804         2.283098         3.396220
 H         4.660818         1.514416         3.169513
 H         4.152940         2.798693         2.084583
 H         2.949931        -1.046484        -0.546631
 H         2.921572         2.094551        -0.248063
 H         0.919738         1.833421         1.870383
 H         0.170702         0.869905        -0.581538
 H         0.030570        -0.823492        -1.030838
 H        -1.037435        -0.214175         0.256356
 H         1.352952        -1.561014         2.185372
