19
Iteration:  2950charge 0 multiplicity 1
 C         4.023821         1.759949         2.512135
 C         3.099049         0.947391         1.694407
 O         3.447285        -0.477953         1.545264
 C         2.526086        -0.338754         0.233524
 C         2.488864         1.214490         0.378583
 C         1.561232         1.061070         1.559068
 C         1.102994        -0.281520         0.775968
 C         0.019215        -0.034098        -0.287219
 O         0.718931        -1.364197         1.542798
 H         3.783626         1.539240         3.543843
 H         5.044877         1.310773         2.403016
 H         3.912594         2.834230         2.431807
 H         2.944000        -1.019416        -0.495115
 H         2.487003         2.100135        -0.184272
 H         1.011416         1.907614         1.902274
 H         0.308850         0.829021        -0.920663
 H         0.184718        -0.832599        -0.958949
 H        -0.990515         0.052866         0.189166
 H         1.211255        -1.462164         2.369157
