19
Iteration:  3741charge 0 multiplicity 1
 C         3.817157         1.413192         2.812924
 C         3.014316         0.950238         1.615264
 O         3.425246        -0.421088         1.320137
 C         2.599950        -0.256032         0.210457
 C         2.693641         1.330740         0.278005
 C         1.543413         1.182368         1.308932
 C         1.173651        -0.102572         0.774976
 C         0.028301        -0.408733        -0.230383
 O         0.755428        -1.111264         1.795645
 H         3.971288         0.500029         3.464177
 H         4.789303         1.803085         2.455320
 H         3.183144         2.298447         3.192912
 H         2.686297        -0.829412        -0.707227
 H         3.001466         2.066118        -0.379998
 H         0.961383         1.943359         1.848900
 H         0.032141        -0.236709        -1.375975
 H        -0.169908        -1.510151        -0.148867
 H        -0.879557         0.051044         0.133799
 H         1.506887        -1.130134         2.504620
