19
Iteration:  1671charge 0 multiplicity 1
 C         3.803193         1.661036         2.756502
 C         3.131840         0.892799         1.691215
 O         3.411605        -0.579569         1.288659
 C         2.527175        -0.319400         0.181594
 C         2.651026         1.297421         0.334051
 C         1.633449         1.122709         1.438448
 C         1.093708        -0.239801         0.817061
 C        -0.077123        -0.057755        -0.178955
 O         0.828953        -1.275649         1.658376
 H         3.506424         1.249267         3.746790
 H         4.944470         1.719444         2.534160
 H         3.605947         2.703544         2.651774
 H         2.850478        -0.934602        -0.727525
 H         2.825710         2.046134        -0.454256
 H         0.974170         1.816782         1.878212
 H         0.430221         0.238035        -1.200722
 H        -0.476031        -1.012701        -0.144624
 H        -0.854640         0.653157        -0.008715
 H         1.602077        -1.351323         2.176885
