19
Iteration:   121charge 0 multiplicity 1
 C         3.966181         1.740344         2.662742
 C         3.113930         0.842700         1.674103
 O         3.403343        -0.558649         1.354484
 C         2.518145        -0.436494         0.169235
 C         2.693946         1.140661         0.272543
 C         1.595349         1.100568         1.313425
 C         1.070780        -0.218233         0.817354
 C         0.003115        -0.103857        -0.174145
 O         0.658334        -1.062951         1.815380
 H         3.915948         1.421466         3.719651
 H         5.066561         1.752416         2.427355
 H         3.439727         2.678059         2.613071
 H         2.642342        -1.116315        -0.611700
 H         3.137017         1.961119        -0.327579
 H         0.994432         1.891384         1.625978
 H         0.542011         0.077623        -1.125482
 H        -0.495140        -1.044987        -0.238613
 H        -0.798076         0.602211         0.009679
 H         1.441943        -1.332149         2.452931
