19
Iteration:  4124charge 0 multiplicity 1
 C         3.843918         1.754188         2.736275
 C         3.083161         0.938994         1.743022
 O         3.380869        -0.437977         1.443305
 C         2.595813        -0.295099         0.126157
 C         2.633905         1.220245         0.336624
 C         1.614704         1.129712         1.334087
 C         1.116948        -0.342631         0.800353
 C        -0.037412        -0.165710        -0.243999
 O         0.779244        -1.339294         1.632241
 H         4.269765         1.186815         3.539292
 H         4.631639         2.525752         2.405733
 H         3.092132         2.333608         3.310230
 H         2.882023        -0.985741        -0.710373
 H         2.969444         2.015006        -0.320356
 H         0.957839         1.942601         1.815153
 H         0.179586         0.698694        -0.750126
 H         0.103284        -1.030227        -0.896612
 H        -1.034653        -0.024458         0.245544
 H         1.588841        -1.373720         2.244942
