19
Iteration:  3146charge 0 multiplicity 1
 C         3.841109         1.639484         2.665244
 C         3.125270         0.907729         1.656684
 O         3.376485        -0.476480         1.356235
 C         2.540806        -0.332752         0.188091
 C         2.663486         1.277766         0.318104
 C         1.537864         1.107097         1.392845
 C         1.148606        -0.270063         0.822423
 C         0.065350        -0.071798        -0.250680
 O         0.725244        -1.307647         1.751882
 H         3.407105         1.434696         3.616299
 H         4.926380         1.456741         2.668443
 H         3.737441         2.735507         2.581264
 H         2.976580        -0.982854        -0.602033
 H         3.015572         2.125841        -0.340397
 H         0.927389         1.942346         1.786162
 H         0.073999         0.872764        -0.646155
 H         0.110609        -0.922555        -0.884118
 H        -0.950127        -0.108122         0.274671
 H         1.490244        -1.368874         2.386640
