19
Iteration:   198
 C         3.841536         1.557988         2.737483
 C         3.118763         0.881215         1.586353
 O         3.436007        -0.437063         1.398109
 C         2.568923        -0.376616         0.126623
 C         2.708129         1.182546         0.233174
 C         1.668561         1.145099         1.309086
 C         1.046983        -0.159543         0.822424
 C        -0.105401        -0.174543        -0.199284
 O         0.741113        -1.113335         1.854791
 H         3.393368         1.146336         3.653177
 H         5.019538         1.281572         2.510161
 H         3.801972         2.643076         2.774701
 H         2.843729        -1.098329        -0.623217
 H         3.036173         1.928380        -0.507352
 H         0.941311         1.874156         1.837458
 H         0.064438        -1.064650        -0.920676
 H        -1.151472        -0.254403         0.258679
 H        -0.096824         0.828887        -0.724691
 H         1.559915        -1.410701         2.391733
