19
Iteration:  4420
 C         3.729629         1.565111         2.874718
 C         3.105690         0.917929         1.664163
 O         3.401735        -0.503047         1.304531
 C         2.674353        -0.288525         0.102917
 C         2.747533         1.397386         0.294969
 C         1.554614         1.196308         1.210858
 C         1.108637        -0.182588         0.744474
 C        -0.010842        -0.400890        -0.243085
 O         0.746371        -1.187933         1.879007
 H         3.874748         0.908105         3.748683
 H         4.626185         2.110318         2.666723
 H         3.117202         2.439137         3.224262
 H         2.886164        -0.905967        -0.791657
 H         3.208330         2.187029        -0.387923
 H         0.896038         1.911545         1.761440
 H         0.208825         0.069695        -1.160512
 H        -0.153280        -1.459660        -0.410157
 H        -1.007233        -0.003340         0.212488
 H         1.475484        -0.921572         2.492565
