19
Iteration:  1220
 C         3.997578         1.606338         2.630466
 C         3.061677         0.959368         1.704801
 O         3.336124        -0.401938         1.442915
 C         2.518353        -0.375583         0.286162
 C         2.689567         1.164344         0.294674
 C         1.595083         1.220406         1.319948
 C         1.120108        -0.271161         0.795537
 C        -0.028363        -0.036492        -0.255492
 O         0.750426        -1.356709         1.693552
 H         3.907071         1.162003         3.640223
 H         4.949220         1.458836         2.156204
 H         3.730866         2.660513         2.757012
 H         2.731848        -1.215588        -0.412893
 H         3.031337         1.874856        -0.439044
 H         0.917641         1.852321         1.678426
 H        -0.831582         0.140986         0.392106
 H        -0.065972         0.903914        -0.812244
 H        -0.138500        -0.874416        -0.904581
 H         1.348693        -1.298640         2.533546
