19
Iteration:  2395charge 0 multiplicity 1
 C         3.710653         1.505827         2.883944
 C         3.022881         0.911693         1.723279
 O         3.384317        -0.483986         1.262423
 C         2.563446        -0.237924         0.069277
 C         2.794178         1.264398         0.282692
 C         1.626099         1.181835         1.258526
 C         1.083846        -0.235293         0.766126
 C        -0.084073        -0.302884        -0.188171
 O         0.908537        -1.106591         1.809505
 H         3.154092         1.174080         3.837837
 H         4.800892         1.206607         3.083706
 H         3.817036         2.568970         2.722766
 H         2.611387        -0.851804        -0.868843
 H         3.057597         2.200019        -0.319075
 H         1.201576         2.088747         1.622711
 H         0.079240         0.259731        -1.095237
 H        -0.395344        -1.356751        -0.267730
 H        -1.000437         0.108859         0.393237
 H         1.803642        -1.261763         2.270575
