19
Iteration:   152charge 0 multiplicity 1
 C         3.919357         1.521790         2.660013
 C         3.048198         0.925157         1.616465
 O         3.242270        -0.482687         1.530735
 C         2.551481        -0.349936         0.176309
 C         2.793897         1.125915         0.208109
 C         1.657052         1.226485         1.314066
 C         1.035322        -0.178429         0.773211
 C        -0.151747        -0.183239        -0.167417
 O         0.901248        -1.111642         1.782102
 H         3.638638         0.948943         3.627594
 H         4.989749         1.515736         2.384873
 H         3.570777         2.579903         2.850311
 H         2.793446        -1.060356        -0.569603
 H         3.203196         1.886900        -0.475709
 H         1.230021         2.132278         1.443330
 H         0.265605        -0.470020        -1.168296
 H        -0.809267        -0.987375         0.115967
 H        -0.815849         0.837394        -0.253290
 H         1.806941        -1.188247         2.161697
