19
Iteration:  3098charge 0 multiplicity 1
 C         3.736266         1.409970         2.834043
 C         3.104558         0.906348         1.634965
 O         3.397223        -0.485462         1.329402
 C         2.547382        -0.255915         0.167682
 C         2.801427         1.372131         0.199965
 C         1.517300         1.217988         1.192999
 C         1.085437        -0.194632         0.833337
 C        -0.056136        -0.287360        -0.174348
 O         0.868529        -1.146982         1.824896
 H         3.672787         0.644108         3.707183
 H         4.798734         1.590284         2.631509
 H         3.355598         2.320982         3.267125
 H         2.539104        -0.845240        -0.726436
 H         3.090491         2.256826        -0.287213
 H         0.952770         2.000306         1.708107
 H         0.328618         0.269482        -1.017818
 H        -0.199572        -1.387053        -0.269202
 H        -1.009206         0.192852         0.017397
 H         1.801744        -1.205046         2.317157
