19
Iteration:  1732charge 0 multiplicity 1
 C         3.802534         1.303735         2.896852
 C         3.054018         0.961244         1.675057
 O         3.387857        -0.417964         1.310845
 C         2.470481        -0.274220         0.105359
 C         2.679439         1.300919         0.186520
 C         1.601015         1.248527         1.279516
 C         1.122428        -0.215193         0.788739
 C        -0.053753        -0.242961        -0.195812
 O         0.931947        -1.103356         1.827489
 H         3.580637         0.493780         3.626136
 H         4.844695         1.495453         2.692744
 H         3.365858         2.209766         3.411382
 H         2.767087        -0.985513        -0.677233
 H         3.023690         1.922521        -0.711528
 H         0.959596         2.013108         1.755836
 H         0.268397        -0.058213        -1.164688
 H        -0.513136        -1.336240        -0.384976
 H        -0.932258         0.393872         0.110385
 H         1.824316        -1.044438         2.376100
