19
Iteration:  2807
 C         3.911578         1.648021         2.743283
 C         3.083366         0.860778         1.698657
 O         3.335891        -0.537507         1.352413
 C         2.524015        -0.217268         0.141024
 C         2.632243         1.211424         0.306160
 C         1.518348         1.164032         1.321359
 C         1.046372        -0.219521         0.825383
 C         0.035126        -0.209703        -0.238081
 O         0.840299        -1.231412         1.751207
 H         3.704910         1.436555         3.824327
 H         4.988028         1.372025         2.637824
 H         3.799608         2.717780         2.715486
 H         2.834910        -0.883365        -0.666546
 H         3.183735         2.004918        -0.307720
 H         1.040865         2.056814         1.969254
 H         0.377124         0.581682        -0.817745
 H         0.007114        -0.979581        -0.987427
 H        -1.041882         0.067799         0.117925
 H         1.681770        -1.195790         2.366324
