19
Iteration:   977
 C         3.999521         1.710264         2.527365
 C         3.057767         0.897201         1.722004
 O         3.382722        -0.538312         1.509321
 C         2.495386        -0.330993         0.223236
 C         2.700152         1.213873         0.359275
 C         1.510994         1.104395         1.440013
 C         1.044323        -0.200290         0.819469
 C         0.067551        -0.063123        -0.343340
 O         0.712764        -1.308615         1.706266
 H         4.191609         1.270013         3.538926
 H         5.071231         1.811042         2.002550
 H         3.658091         2.789737         2.572096
 H         2.873778        -0.968540        -0.572214
 H         2.843222         1.927531        -0.451541
 H         1.058676         1.833398         2.088649
 H        -0.673822         0.645474        -0.034110
 H         0.613663         0.342476        -1.232608
 H        -0.672707        -0.991978        -0.525335
 H         1.408186        -1.356984         2.280985
