19
Iteration:  3315
 C         3.692087         1.496113         2.847335
 C         3.048053         0.933275         1.619765
 O         3.230818        -0.515581         1.392973
 C         2.540416        -0.252479         0.122046
 C         2.728851         1.352580         0.197798
 C         1.589321         1.174698         1.215637
 C         1.209273        -0.252539         0.784949
 C        -0.019753        -0.248995        -0.163164
 O         0.958961        -1.148499         1.804905
 H         3.407965         0.947064         3.773617
 H         4.752993         1.320331         2.870778
 H         3.505036         2.526090         2.934562
 H         2.858709        -0.949555        -0.637598
 H         3.418700         2.007324        -0.475636
 H         1.145770         1.978522         1.781611
 H        -0.241494         0.835363        -0.756889
 H         0.067232        -1.227287        -0.775215
 H        -0.886566        -0.272698         0.424631
 H         1.888866        -1.232102         2.282132
