19
Iteration:   892
 C         3.830884         1.638030         2.720446
 C         3.100611         0.954337         1.582239
 O         3.442875        -0.509422         1.326351
 C         2.566976        -0.334774         0.225979
 C         2.674700         1.151599         0.206338
 C         1.609825         1.036837         1.354625
 C         1.113568        -0.205790         0.877433
 C         0.061435        -0.062112        -0.194822
 O         0.650889        -1.163865         1.803152
 H         3.518361         1.200391         3.664943
 H         4.906297         1.370957         2.787067
 H         3.537800         2.634960         2.741503
 H         2.739792        -1.061280        -0.654107
 H         2.888012         1.911853        -0.556157
 H         0.982864         1.868766         1.667925
 H        -0.847211         0.133053         0.308085
 H         0.178661         0.886025        -0.739731
 H         0.026185        -1.021797        -0.785002
 H         1.487732        -1.551471         2.310766
