19
Iteration:  1896charge 0 multiplicity 1
 C         3.909739         1.587655         2.673593
 C         3.074613         0.833331         1.698096
 O         3.363700        -0.523353         1.422575
 C         2.544720        -0.263482         0.221360
 C         2.617073         1.245595         0.305133
 C         1.558903         1.124867         1.459432
 C         1.123808        -0.137018         0.753683
 C        -0.034049        -0.157810        -0.277051
 O         0.821659        -1.162419         1.676804
 H         4.069488         1.099775         3.644914
 H         4.831459         1.693869         2.162452
 H         3.537932         2.550033         2.898614
 H         2.880383        -0.937053        -0.641452
 H         2.919594         2.035097        -0.349250
 H         0.889891         1.645777         2.045676
 H         0.223058         0.298031        -1.167394
 H        -0.164248        -1.211425        -0.535287
 H        -0.923491         0.157143         0.170095
 H         1.645125        -1.417132         2.256193
