19
Iteration:  2407charge 0 multiplicity 1
 C         3.697623         1.538053         2.911603
 C         3.064490         0.878130         1.658035
 O         3.302924        -0.505627         1.276858
 C         2.500136        -0.294834         0.108533
 C         2.798066         1.342078         0.285177
 C         1.585311         1.209987         1.216418
 C         1.151071        -0.139934         0.751394
 C        -0.080625        -0.280193        -0.087394
 O         0.959653        -1.164423         1.786610
 H         3.085842         1.398516         3.875568
 H         4.716818         0.976154         2.940635
 H         3.744571         2.626553         2.866205
 H         2.812850        -1.022140        -0.670885
 H         3.449623         1.958261        -0.448096
 H         0.938084         1.857615         1.695183
 H         0.095181         0.142275        -1.139157
 H        -0.232998        -1.323497        -0.362982
 H        -0.953648         0.294804         0.296205
 H         1.965391        -1.484079         1.888465
