19
Iteration:    80charge 0 multiplicity 1
 C         4.069313         1.729262         2.571119
 C         3.198933         0.940695         1.510681
 O         3.493675        -0.464276         1.416542
 C         2.478910        -0.486432         0.325616
 C         2.592684         1.126109         0.257571
 C         1.604966         1.108400         1.412284
 C         1.010549        -0.277246         0.931923
 C         0.132195        -0.011246        -0.240640
 O         0.448203        -1.234142         1.759364
 H         3.869633         1.500877         3.563253
 H         5.190243         1.641053         2.306521
 H         3.784714         2.731224         2.475392
 H         2.740759        -1.334024        -0.287398
 H         2.827525         1.825788        -0.569592
 H         1.094944         2.043779         1.719813
 H         0.283547         1.047135        -0.550447
 H         0.314834        -0.701274        -1.136811
 H        -0.852586        -0.158088         0.049810
 H         1.032074        -1.247149         2.482060
