19
Iteration:  2442
 C         3.732763         1.582109         2.851518
 C         3.083113         0.947515         1.695563
 O         3.396444        -0.406756         1.356750
 C         2.543638        -0.334004         0.132814
 C         2.721683         1.223180         0.254343
 C         1.596804         1.097154         1.301231
 C         1.108031        -0.252739         0.718544
 C        -0.098960        -0.119846        -0.160005
 O         0.893995        -1.248657         1.719549
 H         3.385032         1.201827         3.813503
 H         4.834444         1.269039         2.795362
 H         3.874236         2.695767         2.761650
 H         3.001308        -1.078386        -0.466828
 H         2.940741         1.972787        -0.482631
 H         0.924595         1.883948         1.654903
 H         0.266103         0.683578        -0.930163
 H        -0.420178        -1.082773        -0.570166
 H        -0.926104         0.233054         0.380968
 H         1.644831        -1.276926         2.373799
