19
Iteration:  1334
 C         3.924763         1.489335         2.738917
 C         3.070427         0.985666         1.651955
 O         3.404965        -0.484230         1.407704
 C         2.554370        -0.284868         0.248284
 C         2.676748         1.214523         0.177405
 C         1.605955         1.214336         1.314003
 C         1.054654        -0.239222         0.829633
 C        -0.049918        -0.113063        -0.235979
 O         0.777429        -1.248621         1.797438
 H         3.873711         0.857828         3.622439
 H         4.979408         1.602724         2.355420
 H         3.457961         2.449782         2.943485
 H         2.616238        -1.090274        -0.525409
 H         3.064230         1.859825        -0.634792
 H         0.890517         2.133456         1.540568
 H        -0.691392         0.737564         0.091180
 H         0.181734         0.195006        -1.185834
 H        -0.508581        -1.031517        -0.265060
 H         1.589663        -1.452967         2.174841
