19
Iteration:   512
 C         4.023932         1.780941         2.496557
 C         3.117264         0.909148         1.664726
 O         3.460088        -0.408424         1.452464
 C         2.520293        -0.361459         0.297330
 C         2.580861         1.153206         0.312058
 C         1.607792         0.976971         1.473584
 C         1.122953        -0.292716         0.869564
 C         0.099011         0.048990        -0.294742
 O         0.488013        -1.333554         1.698510
 H         4.056231         1.379648         3.531240
 H         5.069227         1.662946         2.157714
 H         3.825688         2.845932         2.472874
 H         2.883508        -1.121969        -0.413604
 H         2.687698         1.983538        -0.402521
 H         1.021465         1.726549         2.059514
 H        -0.925316        -0.371196        -0.143858
 H         0.229061         1.141831        -0.522775
 H         0.372534        -0.561098        -1.149549
 H         1.150874        -1.664714         2.257300
