19
Iteration:  1545charge 0 multiplicity 1
 C         3.779598         1.546079         2.746456
 C         3.070020         0.924057         1.634182
 O         3.464885        -0.448665         1.364461
 C         2.569604        -0.371990         0.145642
 C         2.662612         1.217988         0.215879
 C         1.652257         1.030465         1.357354
 C         1.141754        -0.219966         0.791232
 C        -0.057404        -0.014657        -0.206272
 O         0.748511        -1.183092         1.823435
 H         3.860631         0.876659         3.636964
 H         4.807498         1.697708         2.404676
 H         3.317361         2.520547         3.172982
 H         2.747639        -1.079953        -0.680795
 H         2.768364         1.883346        -0.662022
 H         1.037882         1.717736         2.068363
 H        -0.747970         0.728713         0.013669
 H         0.400296         0.332996        -1.248865
 H        -0.357203        -1.095385        -0.341681
 H         1.348021        -1.081877         2.500896
