19
Iteration:  2756charge 0 multiplicity 1
 C         4.072178         1.902851         2.615590
 C         3.164004         1.007678         1.692819
 O         3.504574        -0.437760         1.432281
 C         2.504354        -0.417244         0.295393
 C         2.659595         1.166138         0.378637
 C         1.493047         1.020575         1.445519
 C         1.077611        -0.364386         0.894606
 C         0.043829         0.075189        -0.234968
 O         0.517702        -1.494600         1.532026
 H         3.929393         1.732370         3.671699
 H         5.156664         1.734855         2.292884
 H         3.893433         2.983725         2.492141
 H         2.838249        -0.963589        -0.555716
 H         2.846919         1.959579        -0.386797
 H         0.751371         1.823998         1.773575
 H         0.442971         0.853597        -1.057122
 H        -0.285781        -0.716296        -0.935101
 H        -0.837175         0.435009         0.197090
 H         1.142561        -1.893662         2.117001
