19
Iteration:  2409charge 0 multiplicity 1
 C         3.692897         1.528179         2.914054
 C         3.064523         0.886779         1.635994
 O         3.302579        -0.525723         1.296069
 C         2.501193        -0.288441         0.109090
 C         2.789840         1.340262         0.272826
 C         1.584313         1.228314         1.217735
 C         1.139517        -0.127639         0.744212
 C        -0.086330        -0.267972        -0.078076
 O         0.979125        -1.176609         1.781619
 H         3.110395         1.398855         3.840146
 H         4.709244         0.999278         2.969424
 H         3.753302         2.645378         2.822706
 H         2.880452        -1.027191        -0.565239
 H         3.426286         1.944766        -0.427359
 H         0.862917         1.803893         1.747278
 H         0.103714         0.171021        -1.183239
 H        -0.186221        -1.317352        -0.332683
 H        -0.882467         0.281280         0.283682
 H         1.899362        -1.513506         1.893547
