19
Iteration:   952
 C         4.091073         1.790690         2.505544
 C         3.024532         0.904191         1.848385
 O         3.319631        -0.516513         1.509115
 C         2.570067        -0.353260         0.219194
 C         2.595235         1.174287         0.347309
 C         1.614841         1.072669         1.477987
 C         1.110052        -0.205357         0.798638
 C         0.055238        -0.112158        -0.278181
 O         0.631898        -1.281930         1.578075
 H         4.280866         1.566176         3.561992
 H         5.039183         1.779058         1.940255
 H         3.764413         2.907784         2.403680
 H         2.776477        -1.085411        -0.479069
 H         3.019274         2.073479        -0.199067
 H         1.082901         1.905163         1.863452
 H        -0.641238         0.691204         0.170183
 H         0.388382         0.170802        -1.262676
 H        -0.692081        -0.940431        -0.243899
 H         1.430248        -1.817139         1.914722
