19
Iteration:  3116
 C         3.793812         1.519972         2.850907
 C         3.051696         0.890291         1.678923
 O         3.440940        -0.470645         1.268986
 C         2.517563        -0.302741         0.129102
 C         2.636947         1.216666         0.267608
 C         1.581069         1.171046         1.352652
 C         1.111872        -0.173157         0.785058
 C        -0.032709        -0.236187        -0.287170
 O         0.856165        -1.103080         1.857505
 H         3.510183         0.950527         3.726316
 H         4.883225         1.460935         2.679470
 H         3.417432         2.569482         3.101854
 H         3.025909        -0.946442        -0.628468
 H         3.012230         1.868432        -0.502413
 H         1.050285         2.066470         1.844254
 H         0.103785         0.593601        -1.210599
 H        -0.157103        -1.297989        -0.635099
 H        -0.921863         0.050385         0.205263
 H         1.814727        -1.425220         2.154802
