19
Iteration:    14charge 0 multiplicity 1
 C         4.044896         1.734580         2.562307
 C         3.022731         0.859263         1.740545
 O         3.276589        -0.607799         1.515000
 C         2.510594        -0.442868         0.241714
 C         2.738026         1.105892         0.184562
 C         1.652603         1.179619         1.280903
 C         1.005745        -0.153337         0.817015
 C        -0.032500        -0.082306        -0.180208
 O         0.726995        -1.149836         1.787001
 H         4.301460         1.558529         3.550280
 H         4.946001         1.423852         1.851924
 H         4.002667         2.745402         2.357649
 H         2.803394        -1.138411        -0.467295
 H         2.991381         1.841438        -0.583463
 H         1.309128         2.012617         1.743909
 H        -0.922893         0.634426         0.012732
 H         0.604551         0.281485        -1.151962
 H        -0.420992        -1.012326        -0.379573
 H         1.424771        -0.907356         2.567221
