19
Iteration:   426
 C         3.838310         1.575967         2.749268
 C         3.046737         0.886825         1.671567
 O         3.320321        -0.527422         1.427604
 C         2.531723        -0.352719         0.104706
 C         2.726012         1.226282         0.228101
 C         1.552182         1.172537         1.312618
 C         1.111707        -0.155351         0.737983
 C        -0.096896        -0.158719        -0.150822
 O         0.922326        -1.148023         1.784101
 H         4.037564         1.165712         3.908924
 H         4.871751         1.285779         2.433655
 H         3.639919         2.641545         2.715336
 H         2.769747        -1.180058        -0.581350
 H         3.168615         2.064903        -0.298334
 H         0.907811         2.018925         1.638517
 H        -1.051403         0.114735         0.414537
 H         0.057781         0.570396        -1.005228
 H        -0.228237        -1.137058        -0.582343
 H         1.839546        -1.338091         2.212590
