19
Iteration:   511
 C         4.032867         1.777508         2.501092
 C         3.112007         0.916251         1.660052
 O         3.463285        -0.413178         1.456116
 C         2.523487        -0.368329         0.289886
 C         2.574908         1.153704         0.304422
 C         1.607406         0.977231         1.479230
 C         1.128342        -0.298305         0.866321
 C         0.099953         0.056463        -0.293160
 O         0.484609        -1.333517         1.702172
 H         4.004119         1.388715         3.499708
 H         5.099308         1.685633         2.153762
 H         3.818754         2.873619         2.494451
 H         2.887733        -1.122838        -0.401393
 H         2.678583         1.996647        -0.382527
 H         0.976623         1.760216         2.095576
 H        -0.922127        -0.370796        -0.141523
 H         0.211798         1.132569        -0.532682
 H         0.394276        -0.576153        -1.168546
 H         1.143383        -1.664623         2.247269
