19
Iteration:   342
 C         3.873156         1.633444         2.688624
 C         3.035913         0.872966         1.665247
 O         3.399102        -0.530768         1.274005
 C         2.562523        -0.320821         0.134721
 C         2.695282         1.274324         0.293196
 C         1.600538         1.112654         1.444509
 C         1.088897        -0.245797         0.802066
 C         0.007776        -0.132836        -0.227748
 O         0.739721        -1.208787         1.854358
 H         3.643396         1.232581         3.566222
 H         4.915237         1.750822         2.390871
 H         3.570572         2.664121         2.711632
 H         2.776345        -0.947960        -0.785984
 H         2.977710         2.215578        -0.209637
 H         1.025274         1.822763         1.917512
 H        -0.673340         0.687973         0.046730
 H         0.388260         0.168127        -1.239717
 H        -0.478733        -1.099741        -0.292315
 H         1.677632        -1.259247         2.319913
