19
Iteration:   194
 C         3.875294         1.528809         2.723372
 C         3.104680         0.937472         1.606369
 O         3.419672        -0.441690         1.398481
 C         2.565913        -0.351544         0.141507
 C         2.726520         1.162460         0.222898
 C         1.665175         1.190692         1.274495
 C         1.050080        -0.192068         0.824267
 C        -0.132511        -0.188212        -0.192955
 O         0.751408        -1.135111         1.865637
 H         3.481750         1.088129         3.713249
 H         4.826224         1.163741         2.621193
 H         3.701792         2.613901         2.857388
 H         2.980607        -1.060452        -0.575029
 H         3.048042         1.919454        -0.500551
 H         1.058859         1.954087         1.562848
 H         0.115545        -0.922058        -0.942969
 H        -1.092912        -0.293559         0.229767
 H        -0.259188         0.885090        -0.659205
 H         1.556076        -1.429818         2.354736
