19
Iteration:   167charge 0 multiplicity 1
 C         3.950460         1.520660         2.794135
 C         3.070649         0.974055         1.626896
 O         3.230832        -0.496367         1.496129
 C         2.482818        -0.395915         0.193598
 C         2.728154         1.188271         0.155944
 C         1.611080         1.256312         1.135860
 C         1.132710        -0.130639         0.767204
 C        -0.081250        -0.202024        -0.109601
 O         0.888640        -1.132120         1.753362
 H         3.851792         0.973783         3.687866
 H         5.034685         1.141812         2.550719
 H         3.731712         2.537473         3.040583
 H         2.772711        -1.281752        -0.434839
 H         3.100642         1.845945        -0.634713
 H         0.850915         1.989705         1.642309
 H         0.136693        -0.592955        -1.121950
 H        -0.882967        -0.782143         0.439105
 H        -0.553389         0.702567        -0.172762
 H         1.722842        -1.262488         2.325302
