19
Iteration:  4680
 C         3.777798         1.619845         2.724401
 C         3.090161         0.968911         1.647997
 O         3.360850        -0.406670         1.475888
 C         2.566098        -0.465204         0.249221
 C         2.650834         1.222363         0.203993
 C         1.634897         1.082872         1.343960
 C         1.131467        -0.197206         0.836431
 C         0.191645        -0.203566        -0.355292
 O         0.668199        -1.142482         1.759112
 H         3.520837         2.673242         2.922340
 H         3.598420         0.943532         3.654095
 H         4.913280         1.642736         2.400752
 H         2.957819        -1.229592        -0.451082
 H         2.773038         2.042711        -0.487291
 H         0.923200         1.804628         1.780261
 H         0.362633         0.490367        -1.160999
 H         0.047708        -1.210009        -0.683945
 H        -0.833587         0.092885         0.010476
 H         1.170699        -1.060724         2.534191
