19
Iteration:   137charge 0 multiplicity 1
 C         3.893030         1.633103         2.643850
 C         3.114335         0.880563         1.693157
 O         3.328272        -0.612854         1.432167
 C         2.532036        -0.351032         0.244599
 C         2.799774         1.217558         0.224276
 C         1.601278         1.220196         1.239844
 C         1.095309        -0.176782         0.803188
 C        -0.129519        -0.165999        -0.261835
 O         0.775883        -1.142714         1.877199
 H         3.905187         1.153020         3.630783
 H         4.916648         1.702577         2.305235
 H         3.654247         2.717861         2.700886
 H         2.834777        -1.083364        -0.591807
 H         3.140019         1.884756        -0.545309
 H         1.094677         2.056090         1.878664
 H         0.031693        -0.129764        -1.330138
 H        -0.772743        -1.054771        -0.031871
 H        -0.641704         0.798833        -0.061356
 H         1.707488        -1.314787         2.141532
