19
Iteration:  4091charge 0 multiplicity 1
 C         3.977023         1.773017         2.506423
 C         2.977291         0.946937         1.835137
 O         3.418176        -0.414704         1.498815
 C         2.570635        -0.285193         0.249528
 C         2.542607         1.241155         0.407976
 C         1.538867         1.076516         1.546157
 C         1.097683        -0.260279         0.801703
 C         0.119560        -0.167586        -0.342520
 O         0.722042        -1.378188         1.537488
 H         4.383701         1.177668         3.307290
 H         4.826409         2.115258         1.863387
 H         3.556486         2.692415         2.923094
 H         2.941718        -0.999956        -0.518458
 H         2.834773         2.077152        -0.165459
 H         0.815851         1.685909         2.106252
 H         0.413164         0.513845        -1.039084
 H        -0.031285        -1.054482        -0.935910
 H        -0.927008         0.023220        -0.074187
 H         1.468039        -1.706021         1.991237
