19
Iteration:  1151charge 0 multiplicity 1
 C         3.956387         1.778662         2.525859
 C         3.137156         0.841398         1.703487
 O         3.503774        -0.461306         1.337912
 C         2.580649        -0.390227         0.258197
 C         2.531038         1.130042         0.396948
 C         1.551919         1.023209         1.499131
 C         1.084342        -0.280634         0.919896
 C         0.169865         0.022456        -0.314895
 O         0.524477        -1.271302         1.686908
 H         3.942922         1.548064         3.579629
 H         4.978542         2.016711         2.080445
 H         3.403102         2.686986         2.622524
 H         2.873501        -0.855473        -0.703902
 H         2.876532         1.868103        -0.298790
 H         1.068164         1.909381         2.038147
 H        -0.472352         0.771867         0.008206
 H         0.504454         0.424637        -1.307185
 H        -0.362509        -0.958281        -0.614073
 H         1.010254        -1.464720         2.423469
