19
Iteration:   388charge 0 multiplicity 1
 C         3.772060         1.489541         2.915728
 C         3.137902         0.935931         1.595972
 O         3.382826        -0.447728         1.298015
 C         2.530441        -0.318073         0.142046
 C         2.650618         1.250647         0.147955
 C         1.654033         1.165887         1.271249
 C         1.151531        -0.218663         0.818510
 C        -0.094246        -0.170621        -0.127067
 O         0.839856        -1.141414         1.810262
 H         3.274358         1.067358         3.617297
 H         4.817447         1.216683         2.783274
 H         3.870139         2.580841         3.157519
 H         2.686445        -1.128923        -0.597639
 H         2.945564         2.096426        -0.520345
 H         1.010552         2.008779         1.559155
 H        -0.827992         0.557750         0.038663
 H         0.092775        -0.221999        -1.186599
 H        -0.416627        -1.224980         0.075296
 H         1.774349        -1.398074         2.249077
