19
Iteration:  2696charge 0 multiplicity 1
 C         3.939171         1.707694         2.706831
 C         3.046844         0.914631         1.758791
 O         3.410054        -0.519027         1.339128
 C         2.546209        -0.344438         0.232784
 C         2.653254         1.298061         0.365392
 C         1.591341         1.095020         1.359367
 C         1.057425        -0.331254         0.802598
 C        -0.005184        -0.095013        -0.322388
 O         0.711421        -1.252206         1.743941
 H         4.354101         1.275238         3.644414
 H         4.856839         1.819530         2.132045
 H         3.416834         2.674695         2.871784
 H         3.056185        -0.817463        -0.665259
 H         2.853543         2.088114        -0.284286
 H         1.133758         1.936398         1.730966
 H         0.376862         0.595103        -0.964859
 H        -0.018214        -1.097859        -0.764467
 H        -1.023414         0.254526         0.058320
 H         1.508587        -1.595377         2.161030
