19
Iteration:  3397
 C         3.968102         1.747522         2.576370
 C         3.057497         0.908883         1.727126
 O         3.525380        -0.403434         1.403537
 C         2.534594        -0.403734         0.342171
 C         2.502645         1.232636         0.372110
 C         1.457691         1.093262         1.499050
 C         1.107475        -0.246752         0.896640
 C         0.166941        -0.032463        -0.373744
 O         0.659542        -1.411513         1.588835
 H         3.810611         1.544087         3.651556
 H         4.983605         1.725731         2.062351
 H         3.666630         2.867637         2.557077
 H         2.779375        -1.078203        -0.518205
 H         2.762357         2.059716        -0.440739
 H         0.896980         1.730215         2.159201
 H         0.623165         0.444474        -1.125967
 H        -0.222367        -0.930609        -0.781712
 H        -0.818310         0.538758        -0.039349
 H         1.432435        -1.726254         2.210411
