19
Iteration:   922
 C         3.998420         1.693002         2.599049
 C         3.147081         0.912088         1.656947
 O         3.408929        -0.449024         1.481037
 C         2.561815        -0.379422         0.282243
 C         2.575589         1.191224         0.266455
 C         1.595551         1.077073         1.408255
 C         1.046485        -0.223774         0.864914
 C         0.011247         0.021629        -0.288737
 O         0.675511        -1.388664         1.672901
 H         3.682396         1.394726         3.600787
 H         5.137212         1.662047         2.321562
 H         3.699447         2.794447         2.529924
 H         2.794294        -1.109134        -0.428093
 H         2.987735         2.029645        -0.368172
 H         1.128898         1.915639         1.743520
 H        -0.660469         0.692687         0.198794
 H         0.441479         0.525468        -1.138944
 H        -0.460575        -0.957954        -0.778640
 H         1.075999        -1.321290         2.475447
