19
Iteration:  4262charge 0 multiplicity 1
 C         3.872588         1.720862         2.654988
 C         2.993586         0.981445         1.695061
 O         3.397778        -0.395203         1.445006
 C         2.619540        -0.316702         0.268210
 C         2.546212         1.218975         0.274344
 C         1.511616         1.109834         1.478420
 C         1.097390        -0.269902         0.801532
 C         0.146678        -0.079093        -0.262754
 O         0.786693        -1.453500         1.644614
 H         3.527292         2.137420         3.635712
 H         4.676399         0.980090         2.735714
 H         4.370221         2.449667         2.039219
 H         3.052107        -0.948570        -0.523377
 H         2.691619         2.001995        -0.505677
 H         0.757647         1.826490         1.879412
 H         0.286611         0.770369        -1.132482
 H         0.158004        -1.053658        -0.862318
 H        -0.861665         0.152715         0.032785
 H         1.350809        -1.392391         2.440146
