19
Iteration:  2462
 C         3.866753         1.678091         2.765048
 C         3.043989         0.951336         1.634984
 O         3.483457        -0.491886         1.379797
 C         2.646711        -0.307442         0.208958
 C         2.584916         1.280345         0.293533
 C         1.560920         1.077699         1.346049
 C         1.130133        -0.265463         0.790267
 C         0.027095        -0.093655        -0.233074
 O         0.676153        -1.307455         1.721919
 H         3.635008         1.103313         3.719026
 H         5.024123         1.632125         2.655814
 H         3.584505         2.753122         2.833227
 H         2.878398        -0.897175        -0.669492
 H         2.862006         2.007031        -0.506325
 H         1.028675         1.846488         1.785998
 H         0.148738         0.890786        -0.823677
 H        -0.110204        -0.970308        -0.874710
 H        -0.888514         0.115636         0.352722
 H         1.372208        -1.810081         2.314263
