19
Iteration:  4361charge 0 multiplicity 1
 C         3.852879         1.627695         2.778922
 C         2.987782         1.051944         1.685915
 O         3.336121        -0.365386         1.414524
 C         2.515163        -0.318071         0.169799
 C         2.661395         1.257259         0.299071
 C         1.540149         1.094866         1.320897
 C         1.084483        -0.290948         0.815094
 C         0.114055        -0.223164        -0.282869
 O         0.868760        -1.327143         1.770464
 H         3.381476         1.734987         3.742994
 H         4.725232         0.905615         2.768834
 H         4.186088         2.596817         2.441609
 H         2.801230        -1.038781        -0.624915
 H         2.908124         1.929775        -0.474652
 H         0.864788         1.945758         1.529202
 H         0.439225         0.665954        -0.970372
 H        -0.158726        -1.102275        -0.964518
 H        -0.804367         0.309091         0.047287
 H         1.719799        -1.525676         2.195197
