19
Iteration:  2445charge 0 multiplicity 1
 C         3.771548         1.586471         2.857576
 C         3.089686         0.961133         1.703467
 O         3.410681        -0.413964         1.352781
 C         2.557653        -0.342869         0.144542
 C         2.725768         1.231300         0.224317
 C         1.562295         1.091358         1.293055
 C         1.118420        -0.264865         0.735714
 C        -0.082230        -0.094728        -0.175300
 O         0.854274        -1.266264         1.723960
 H         3.399401         1.242162         3.798618
 H         4.805403         1.372675         2.810751
 H         3.821699         2.696733         2.767097
 H         2.973572        -1.122898        -0.544298
 H         2.943131         2.043376        -0.414634
 H         0.790118         1.849945         1.753275
 H         0.238224         0.661992        -0.906320
 H        -0.412355        -1.064943        -0.581761
 H        -0.976365         0.169698         0.412404
 H         1.678588        -1.244043         2.354992
