19
Iteration:   318
 C         4.032806         1.707181         2.619872
 C         3.096364         0.878009         1.692116
 O         3.373282        -0.507518         1.450331
 C         2.492545        -0.323331         0.256327
 C         2.579818         1.202257         0.313037
 C         1.625717         1.102796         1.425859
 C         1.064324        -0.206859         0.818055
 C        -0.002038        -0.091284        -0.227381
 O         0.751306        -1.281287         1.640595
 H         3.987483         1.229661         3.570840
 H         4.911655         1.976359         2.087959
 H         3.631968         2.684127         2.790742
 H         2.715541        -0.941461        -0.616329
 H         2.809714         1.879635        -0.462922
 H         0.906210         1.890767         1.876946
 H        -0.962624         0.364110         0.218571
 H         0.220205         0.612063        -1.095816
 H        -0.051137        -1.121564        -0.575872
 H         1.576019        -1.448683         2.066280
