19
Iteration:  3395
 C         3.941157         1.736314         2.577570
 C         3.045304         0.909405         1.749472
 O         3.525519        -0.401892         1.399295
 C         2.532690        -0.398461         0.331241
 C         2.492484         1.238868         0.346074
 C         1.489086         1.100220         1.487823
 C         1.128767        -0.232698         0.886933
 C         0.166919        -0.042707        -0.342148
 O         0.652810        -1.419805         1.589734
 H         3.849843         1.529994         3.647786
 H         4.957211         1.665235         2.129827
 H         3.661666         2.839187         2.482626
 H         2.785600        -1.105213        -0.501512
 H         2.744920         2.043193        -0.348749
 H         0.917171         1.803863         2.153480
 H         0.656320         0.432007        -1.141683
 H        -0.209983        -0.941994        -0.820342
 H        -0.770032         0.524730         0.037771
 H         1.409011        -1.646378         2.181353
