19
Iteration:    10
 C         4.016463         1.696748         2.574222
 C         3.048013         0.849436         1.673012
 O         3.290983        -0.576669         1.493053
 C         2.499356        -0.448966         0.269092
 C         2.739391         1.112770         0.168045
 C         1.665306         1.161846         1.269661
 C         1.035302        -0.153711         0.825461
 C        -0.040752        -0.088363        -0.166634
 O         0.700763        -1.117044         1.815333
 H         4.181953         1.462143         3.689924
 H         4.858182         1.385568         2.073308
 H         3.931090         2.842820         2.455767
 H         2.862377        -1.172667        -0.529316
 H         3.009084         1.811680        -0.610908
 H         1.310126         2.139086         1.759395
 H        -0.829820         0.535629         0.083621
 H         0.417771         0.386225        -0.945907
 H        -0.220845        -1.181084        -0.534195
 H         1.457419        -0.937361         2.363267
