19
Iteration:  3743
 C         3.815927         1.411181         2.816985
 C         3.033525         0.935680         1.603762
 O         3.439367        -0.418163         1.324741
 C         2.585544        -0.256043         0.221401
 C         2.684603         1.338467         0.274885
 C         1.538341         1.174358         1.300077
 C         1.160852        -0.116053         0.770070
 C         0.029047        -0.398297        -0.247651
 O         0.765407        -1.095952         1.799660
 H         3.894526         0.536215         3.433738
 H         4.828536         1.808402         2.514687
 H         3.228417         2.308821         3.248795
 H         2.707381        -0.851524        -0.688680
 H         3.019219         2.078955        -0.380040
 H         0.896421         1.929111         1.887545
 H         0.018126        -0.309584        -1.244334
 H        -0.170039        -1.414464        -0.185744
 H        -0.934983        -0.028500         0.164252
 H         1.481466        -1.154017         2.465801
