19
Iteration:   187
 C         3.884703         1.502479         2.736138
 C         3.091684         0.991050         1.649783
 O         3.383966        -0.468101         1.396390
 C         2.568102        -0.337618         0.192755
 C         2.751084         1.175336         0.171149
 C         1.622603         1.217677         1.225633
 C         1.079752        -0.236005         0.825564
 C        -0.133077        -0.172309        -0.175205
 O         0.752226        -1.154445         1.862710
 H         3.555369         1.016903         3.667494
 H         5.020096         1.142711         2.705583
 H         3.768963         2.573501         2.868998
 H         2.945699        -0.995687        -0.561634
 H         3.045609         1.943953        -0.572095
 H         1.135803         2.214297         1.406943
 H         0.058524        -0.838294        -1.083278
 H        -1.075003        -0.532215         0.347697
 H        -0.310789         0.837885        -0.604423
 H         1.710715        -1.349968         2.257626
