19
Iteration:  2876charge 0 multiplicity 1
 C         3.721815         1.471722         2.940705
 C         3.128023         0.921607         1.611757
 O         3.457091        -0.398972         1.272563
 C         2.565512        -0.371700         0.109438
 C         2.781097         1.309761         0.217840
 C         1.615736         1.180580         1.202558
 C         1.056486        -0.213480         0.789852
 C        -0.157280        -0.250022        -0.153275
 O         0.866556        -1.157479         1.830734
 H         3.712598         0.630453         3.656946
 H         4.831115         1.647409         2.815449
 H         3.147210         2.288525         3.439977
 H         2.672672        -1.064697        -0.722240
 H         3.089914         2.163202        -0.300651
 H         1.091910         1.998880         1.606894
 H         0.127443         0.359466        -1.120980
 H        -0.413793        -1.223697        -0.566034
 H        -0.906147         0.141626         0.428312
 H         1.355179        -0.879250         2.559438
