19
Iteration:  4174charge 0 multiplicity 1
 C         3.581773         1.515669         2.922282
 C         3.039447         0.938810         1.635394
 O         3.442899        -0.441364         1.337462
 C         2.580025        -0.264451         0.124439
 C         2.688962         1.270574         0.148348
 C         1.614866         1.164158         1.273909
 C         1.126213        -0.225333         0.761020
 C        -0.055664        -0.302414        -0.215245
 O         0.942187        -1.160241         1.846010
 H         3.487225         0.835598         3.824019
 H         4.631998         1.559027         2.746881
 H         3.266986         2.430332         3.376151
 H         2.983511        -0.928772        -0.617987
 H         2.868439         2.044421        -0.554971
 H         1.073281         1.969046         1.638001
 H         0.173933         0.710548        -0.778626
 H        -0.225714        -1.258468        -0.753809
 H        -0.793556         0.072695         0.421043
 H         1.884570        -1.234241         2.042754
