19
Iteration:  3929charge 0 multiplicity 1
 C         3.854956         1.588585         2.818644
 C         3.067707         0.916529         1.655460
 O         3.480733        -0.404125         1.353926
 C         2.595793        -0.308980         0.204047
 C         2.606600         1.295587         0.254366
 C         1.514964         1.121332         1.410363
 C         1.161129        -0.183692         0.771223
 C        -0.052110        -0.302126        -0.337981
 O         0.759726        -1.191543         1.745927
 H         3.957737         0.768163         3.461147
 H         4.771643         2.097071         2.574627
 H         3.275077         2.415715         3.209205
 H         2.981390        -0.954495        -0.611026
 H         3.022530         2.163010        -0.339841
 H         0.944066         1.839979         1.906047
 H         0.090367         0.276503        -1.138775
 H        -0.007575        -1.350050        -0.594923
 H        -0.977438        -0.157054         0.353096
 H         1.522146        -1.353013         2.350097
