19
Iteration:  1881charge 0 multiplicity 1
 C         4.020731         1.692889         2.568441
 C         3.033995         0.903598         1.808701
 O         3.377334        -0.509919         1.400235
 C         2.583228        -0.308620         0.181216
 C         2.670628         1.269695         0.436772
 C         1.560751         1.075381         1.458879
 C         1.105335        -0.274330         0.770441
 C         0.020922        -0.128062        -0.275744
 O         0.648448        -1.276130         1.646383
 H         4.116927         1.277876         3.569694
 H         5.021488         1.876808         2.115933
 H         3.617162         2.776444         2.643649
 H         2.885362        -0.879877        -0.656107
 H         2.934384         2.116897        -0.217442
 H         1.037321         1.992890         1.912953
 H         0.141308         0.699723        -1.015142
 H        -0.203413        -1.030499        -0.792847
 H        -0.947249         0.121246         0.293565
 H         1.446398        -1.414846         2.103902
