19
Iteration:  3713charge 0 multiplicity 1
 C         3.934345         1.645787         2.865043
 C         3.077226         0.940515         1.670671
 O         3.319148        -0.484648         1.385894
 C         2.544504        -0.282625         0.158999
 C         2.667455         1.276226         0.285994
 C         1.553314         1.099526         1.263019
 C         1.093534        -0.228284         0.785590
 C        -0.031926        -0.255055        -0.327282
 O         0.834394        -1.215232         1.824304
 H         4.205079         0.860178         3.515041
 H         4.852883         2.084849         2.450703
 H         3.287297         2.370343         3.274207
 H         2.829153        -0.812421        -0.759227
 H         3.006867         2.072550        -0.379180
 H         0.967781         1.916212         1.773616
 H         0.231586         0.262673        -1.273628
 H        -0.233863        -1.275476        -0.602941
 H        -0.996331         0.305510        -0.016733
 H         1.743706        -1.204890         2.319092
