19
Iteration:   436charge 0 multiplicity 1
 C         3.972663         1.616710         2.734955
 C         3.025675         0.862306         1.732047
 O         3.311179        -0.541960         1.433176
 C         2.511853        -0.368032         0.100061
 C         2.685394         1.214321         0.276192
 C         1.598876         1.131851         1.307958
 C         1.116242        -0.168601         0.761897
 C        -0.043068        -0.167216        -0.180828
 O         0.843629        -1.128185         1.752794
 H         3.696388         1.370738         3.841222
 H         4.964173         1.836519         2.339431
 H         3.556949         2.643761         2.685960
 H         2.812653        -1.037669        -0.704836
 H         2.895817         1.956420        -0.470104
 H         0.888198         1.920712         1.724584
 H        -0.938317        -0.057243         0.516051
 H        -0.090129         0.741644        -0.806858
 H        -0.076322        -1.048927        -0.785959
 H         1.816899        -1.327685         1.985591
