19
Iteration:  1628
 C         4.120417         1.700104         2.567150
 C         3.020284         0.983027         1.785117
 O         3.380868        -0.461855         1.457897
 C         2.573405        -0.276471         0.299294
 C         2.596210         1.236539         0.360401
 C         1.460592         1.090388         1.396355
 C         1.089779        -0.308345         0.832497
 C         0.018138        -0.020796        -0.226094
 O         0.717660        -1.477074         1.537470
 H         4.138408         1.567579         3.660945
 H         5.188396         1.386794         2.159666
 H         4.067140         2.740078         2.341963
 H         2.730503        -1.049749        -0.543486
 H         2.698776         2.131645        -0.330935
 H         0.925044         1.909362         1.841710
 H         0.242566         1.228567        -0.434062
 H        -0.063734        -0.561667        -1.115885
 H        -0.988591         0.111263         0.129944
 H         1.347833        -1.572610         2.275175
