19
Iteration:  2674charge 0 multiplicity 1
 C         3.899059         1.503464         2.774539
 C         3.041623         0.917089         1.640888
 O         3.341052        -0.454930         1.399676
 C         2.518352        -0.279725         0.163739
 C         2.678682         1.310126         0.260057
 C         1.555142         1.198240         1.361730
 C         1.127673        -0.202744         0.769964
 C         0.015643        -0.225217        -0.273031
 O         0.813952        -1.195667         1.776451
 H         3.754714         0.790599         3.632876
 H         4.978351         1.608851         2.672146
 H         3.386969         2.470006         3.005093
 H         2.804289        -1.031098        -0.652494
 H         3.148702         1.921935        -0.473648
 H         0.955259         1.884987         1.831586
 H         0.029113         0.444165        -1.036089
 H         0.065572        -1.311006        -0.527924
 H        -0.966384        -0.117027         0.310454
 H         1.741510        -1.163768         2.129163
