19
Iteration:  1048charge 0 multiplicity 1
 C         3.779226         1.554649         2.826759
 C         3.130492         0.847251         1.638829
 O         3.421805        -0.553081         1.303673
 C         2.624259        -0.352613         0.161757
 C         2.781491         1.197195         0.264046
 C         1.561943         1.216914         1.203202
 C         1.051033        -0.142709         0.776872
 C        -0.088388        -0.209746        -0.179137
 O         0.788469        -1.061635         1.862434
 H         3.461846         1.078498         3.752597
 H         4.807011         1.477350         2.857768
 H         3.507892         2.628064         2.744450
 H         2.624717        -1.084171        -0.679609
 H         3.045545         2.123735        -0.357029
 H         1.080534         2.009523         1.710537
 H        -1.027717        -0.566425         0.380323
 H        -0.233156         0.724032        -0.695557
 H        -0.004701        -1.005321        -0.792667
 H         1.712554        -1.142958         2.195648
