19
Iteration:  3866
 C         3.934457         1.794090         2.563140
 C         3.017832         0.939469         1.704215
 O         3.478887        -0.401320         1.560616
 C         2.540540        -0.347723         0.265449
 C         2.558429         1.171171         0.286839
 C         1.545925         1.016794         1.511630
 C         1.102804        -0.279024         0.859517
 C         0.079479        -0.035460        -0.269868
 O         0.722107        -1.375053         1.517171
 H         3.931587         1.521394         3.692031
 H         4.946596         1.606908         2.049385
 H         3.647214         2.916102         2.498182
 H         2.973652        -1.089783        -0.437399
 H         2.600083         2.065629        -0.379743
 H         1.008123         1.719659         2.049847
 H         0.366439         0.635831        -1.090493
 H        -0.105336        -0.959580        -0.799725
 H        -0.887477         0.367509         0.043200
 H         1.362947        -1.743367         2.169169
