19
Iteration:   906
 C         3.907984         1.688157         2.727351
 C         3.108551         0.983756         1.652739
 O         3.417268        -0.488129         1.371655
 C         2.501271        -0.441967         0.216282
 C         2.611063         1.152262         0.201868
 C         1.638284         1.114202         1.403631
 C         1.136581        -0.304235         0.823364
 C         0.084520         0.017412        -0.199006
 O         0.666746        -1.264625         1.724928
 H         3.619887         1.303442         3.742074
 H         4.936637         1.572258         2.508420
 H         3.807028         2.778984         2.697030
 H         2.749985        -1.209407        -0.626263
 H         2.535206         1.822538        -0.614762
 H         0.942234         1.931860         1.901864
 H        -0.946646         0.311214         0.221605
 H         0.529248         0.714036        -0.967860
 H        -0.190177        -0.827794        -0.720626
 H         1.229340        -1.139138         2.482979
