19
Iteration:   993
 C         3.937784         1.652176         2.658484
 C         3.059640         0.898407         1.704256
 O         3.406091        -0.454001         1.397786
 C         2.500237        -0.370837         0.260495
 C         2.601979         1.157626         0.225818
 C         1.615202         1.128528         1.401711
 C         1.097857        -0.259196         0.850027
 C         0.062691        -0.030055        -0.279645
 O         0.720670        -1.262526         1.735921
 H         3.914219         1.155520         3.627238
 H         4.867906         1.619501         2.193573
 H         3.678350         2.681339         2.829666
 H         2.564902        -1.110005        -0.605129
 H         3.030182         1.965817        -0.383441
 H         0.959756         2.000399         1.716745
 H        -0.856184         0.564383        -0.012790
 H         0.595335         0.333139        -1.172547
 H        -0.155978        -0.958586        -0.634662
 H         1.280621        -1.176063         2.537077
