19
Iteration:  3910
 C         3.888734         1.699504         2.689273
 C         3.025169         0.881277         1.746690
 O         3.448528        -0.440962         1.352351
 C         2.562215        -0.248305         0.183660
 C         2.597290         1.301788         0.318816
 C         1.569454         1.058697         1.446774
 C         1.093087        -0.259032         0.829852
 C         0.144681        -0.256202        -0.287571
 O         0.690098        -1.240273         1.723818
 H         4.083312         0.871343         3.424655
 H         4.769483         2.083466         2.111972
 H         3.244867         2.513713         3.077246
 H         2.661257        -0.852612        -0.724758
 H         2.646162         2.078651        -0.389033
 H         0.931997         1.754292         1.943686
 H         0.550973         0.363822        -1.118006
 H         0.038760        -1.239127        -0.746185
 H        -0.786505         0.188935        -0.081760
 H         1.488035        -1.260084         2.244008
