19
Iteration:  3676charge 0 multiplicity 1
 C         3.809343         1.733011         2.600583
 C         3.033301         0.939874         1.719637
 O         3.383589        -0.477030         1.488331
 C         2.605856        -0.322758         0.205896
 C         2.625468         1.168519         0.229424
 C         1.596557         1.088456         1.365313
 C         1.118001        -0.259966         0.833460
 C         0.094730         0.004496        -0.163211
 O         0.721335        -1.397249         1.648358
 H         4.009467         1.335980         3.647729
 H         4.788256         1.989044         2.185031
 H         3.411186         2.800258         2.810682
 H         2.812283        -0.993994        -0.654375
 H         3.047586         2.041130        -0.305346
 H         1.000235         1.868592         1.798309
 H         0.312859         0.841072        -0.803510
 H         0.117249        -0.796445        -0.935734
 H        -0.829771        -0.074157         0.311158
 H         1.462640        -1.517085         2.352477
