19
Iteration:  1783charge 0 multiplicity 1
 C         3.928386         1.644186         2.681423
 C         3.090337         0.850949         1.733383
 O         3.388486        -0.529000         1.398706
 C         2.601512        -0.285211         0.193407
 C         2.709841         1.224236         0.332527
 C         1.527324         1.023299         1.404308
 C         1.081611        -0.181988         0.773323
 C        -0.051253        -0.099280        -0.238864
 O         0.748606        -1.196415         1.664614
 H         3.782235         1.406751         3.704458
 H         4.953328         1.665072         2.321727
 H         3.721481         2.761696         2.576829
 H         2.731924        -0.943439        -0.613749
 H         2.915838         2.108882        -0.322716
 H         1.132958         1.890335         2.126698
 H        -0.270258         0.831115        -0.816531
 H         0.082502        -0.800460        -0.986760
 H        -0.923739        -0.530888         0.267587
 H         1.441466        -1.167090         2.260063
