19
Iteration:  4056charge 0 multiplicity 1
 C         4.042898         1.791537         2.616320
 C         3.018810         1.006802         1.757674
 O         3.464597        -0.363632         1.393935
 C         2.509734        -0.317104         0.286680
 C         2.499363         1.270263         0.366564
 C         1.496729         1.028332         1.518566
 C         1.100350        -0.320549         0.837935
 C         0.133009        -0.141045        -0.388117
 O         0.703813        -1.445598         1.589513
 H         3.770102         1.413862         3.672741
 H         4.996483         1.304022         2.305771
 H         3.895955         2.881590         2.632041
 H         2.831932        -0.984818        -0.506821
 H         2.575109         2.122484        -0.316794
 H         0.840339         1.507636         2.162476
 H         0.707233         0.638040        -0.935181
 H         0.008684        -1.080101        -0.958671
 H        -0.673171         0.406359        -0.061210
 H         1.153046        -1.349295         2.407461
