19
Iteration:  2453
 C         3.869931         1.620675         2.850027
 C         3.055179         0.972132         1.663036
 O         3.448143        -0.454042         1.363422
 C         2.630805        -0.358232         0.177342
 C         2.695843         1.270015         0.198136
 C         1.503910         1.093401         1.290016
 C         1.141102        -0.288729         0.797134
 C        -0.043326        -0.068770        -0.189515
 O         0.752637        -1.305318         1.733279
 H         3.408238         1.332226         3.797428
 H         4.992790         1.463619         2.834448
 H         3.511181         2.704693         2.832385
 H         2.745309        -0.981225        -0.676831
 H         2.928592         2.141479        -0.364369
 H         0.769904         1.685288         1.856384
 H         0.030682         0.743603        -1.041898
 H        -0.233156        -0.988657        -0.768933
 H        -0.869798         0.177599         0.395856
 H         1.681962        -1.284025         2.235382
