19
Iteration:  4008charge 0 multiplicity 1
 C         3.715737         1.733886         2.922509
 C         3.073131         0.952991         1.687045
 O         3.428094        -0.459018         1.275309
 C         2.591096        -0.297390         0.084590
 C         2.691874         1.302957         0.279770
 C         1.611907         1.051389         1.329050
 C         1.145484        -0.312610         0.769669
 C        -0.062153        -0.156698        -0.203533
 O         0.824081        -1.311334         1.751791
 H         3.094262         1.750960         3.864115
 H         4.739622         1.321103         2.953025
 H         3.570227         2.752057         2.481387
 H         2.877024        -1.091380        -0.633331
 H         3.231524         2.059142        -0.250853
 H         0.974369         1.828910         1.895008
 H         0.039930         0.679321        -0.953986
 H        -0.113699        -1.138816        -0.714618
 H        -0.960798         0.107398         0.425072
 H         1.726599        -1.505170         2.150714
