19
Iteration:  1013
 C         3.867333         1.569270         2.738762
 C         3.186502         0.950912         1.564061
 O         3.420443        -0.473295         1.396999
 C         2.592420        -0.391678         0.200661
 C         2.650049         1.236171         0.212311
 C         1.578426         1.131958         1.305661
 C         1.092073        -0.225061         0.853275
 C         0.071368        -0.130915        -0.204693
 O         0.639238        -1.170450         1.802399
 H         3.486630         0.973467         3.615154
 H         4.991520         1.604738         2.691337
 H         3.473528         2.542384         2.949626
 H         2.770821        -1.191889        -0.666784
 H         2.580726         1.960910        -0.572140
 H         0.968322         1.921083         1.915305
 H        -0.769117         0.229526         0.408471
 H         0.208842         0.688922        -0.986455
 H        -0.125584        -1.046182        -0.731702
 H         1.418519        -1.333945         2.230814
