19
Iteration:  1542
 C         3.763783         1.531689         2.762009
 C         3.101239         0.930423         1.641725
 O         3.445448        -0.431834         1.378697
 C         2.583411        -0.350938         0.140161
 C         2.653845         1.212868         0.208241
 C         1.671230         1.048071         1.344918
 C         1.141274        -0.237699         0.805229
 C        -0.068665        -0.040412        -0.211178
 O         0.754073        -1.165042         1.803072
 H         3.872793         0.889852         3.599741
 H         4.817087         1.609149         2.407405
 H         3.306720         2.375436         3.098446
 H         2.691326        -1.163323        -0.676762
 H         2.819700         1.898629        -0.696939
 H         1.073145         1.669323         1.913368
 H        -0.877011         0.728018         0.091665
 H         0.284511         0.341163        -1.097433
 H        -0.324242        -1.028627        -0.348749
 H         1.408926        -1.158611         2.591691
