19
Iteration:  4613
 C         3.663579         1.627983         2.816003
 C         3.040198         0.837161         1.671847
 O         3.387735        -0.538570         1.415552
 C         2.660765        -0.316413         0.133381
 C         2.799251         1.205356         0.304622
 C         1.551085         1.172487         1.196267
 C         1.121855        -0.171720         0.727920
 C        -0.031001        -0.257183        -0.152342
 O         0.806844        -1.082590         1.725695
 H         4.387215         2.362844         2.428507
 H         2.977259         2.234009         3.546361
 H         4.329572         1.047722         3.569055
 H         3.071784        -0.784964        -0.765324
 H         3.395397         1.743335        -0.389286
 H         1.028513         2.058784         1.645509
 H        -0.023277         0.281889        -1.015196
 H         0.074400        -1.324690        -0.467026
 H        -1.022914        -0.084474         0.379423
 H         1.414716        -1.031702         2.515054
