19
Iteration:  2614charge 0 multiplicity 1
 C         3.638606         1.471479         2.856860
 C         3.008572         0.876650         1.678787
 O         3.469043        -0.529554         1.273169
 C         2.614109        -0.287720         0.050578
 C         2.771940         1.329662         0.230233
 C         1.587163         1.130795         1.308406
 C         1.092892        -0.204873         0.755565
 C        -0.091211        -0.218381        -0.120041
 O         0.931104        -1.044548         1.840607
 H         2.937989         1.221275         3.647632
 H         4.674044         1.128424         3.069962
 H         3.644361         2.543332         2.874680
 H         2.809719        -0.987896        -0.737482
 H         2.810181         2.165271        -0.424251
 H         1.091447         1.971408         1.887260
 H         0.051690         0.475697        -1.054147
 H        -0.243065        -1.197498        -0.563931
 H        -0.975904         0.004920         0.462151
 H         1.757661        -1.568460         1.974231
