19
Iteration:  1789
 C         3.956330         1.708126         2.647758
 C         3.076811         0.878969         1.743496
 O         3.427559        -0.549558         1.395434
 C         2.600328        -0.320420         0.169068
 C         2.717295         1.243968         0.377364
 C         1.553310         1.063638         1.427442
 C         1.069048        -0.222543         0.770457
 C        -0.068026        -0.056397        -0.256958
 O         0.697774        -1.247073         1.671954
 H         3.757682         1.422403         3.727852
 H         5.082817         1.630765         2.427114
 H         3.614131         2.696172         2.395637
 H         2.868338        -1.031345        -0.677427
 H         2.858071         2.077701        -0.253180
 H         1.012611         1.739122         1.988426
 H        -0.281161         0.992942        -0.600174
 H         0.258149        -0.842175        -1.065222
 H        -1.014872        -0.452382         0.127563
 H         1.392036        -1.300590         2.392928
