19
Iteration:  4051charge 0 multiplicity 1
 C         3.985437         1.758016         2.645591
 C         3.017678         0.962713         1.722026
 O         3.480440        -0.327173         1.392264
 C         2.543153        -0.344404         0.280227
 C         2.477777         1.259628         0.337837
 C         1.525451         1.008500         1.563046
 C         1.101762        -0.293278         0.834564
 C         0.115402        -0.130283        -0.381846
 O         0.701257        -1.426683         1.585072
 H         3.776011         1.503360         3.699313
 H         4.982298         1.385053         2.384391
 H         4.040828         2.876068         2.545825
 H         2.876541        -0.947055        -0.584301
 H         2.669387         2.117580        -0.319785
 H         0.793068         1.727467         2.121297
 H         0.688187         0.571771        -1.075119
 H         0.092339        -1.120016        -0.841332
 H        -0.858062         0.382786         0.044105
 H         1.242113        -1.356243         2.455023
