19
Iteration:  3403
 C         4.025260         1.798446         2.566079
 C         3.095793         0.938558         1.673818
 O         3.512422        -0.418154         1.421290
 C         2.536404        -0.383384         0.353499
 C         2.538105         1.231964         0.418304
 C         1.413466         1.042585         1.526710
 C         1.045132        -0.302171         0.892031
 C         0.139000        -0.011415        -0.417536
 O         0.676995        -1.393851         1.603578
 H         3.929324         1.466557         3.607368
 H         4.992756         1.833927         2.119020
 H         3.667085         2.796543         2.652735
 H         2.751499        -0.989308        -0.518651
 H         2.710220         1.848869        -0.368911
 H         0.754789         1.681277         2.185191
 H         0.685908         0.630533        -1.266855
 H        -0.223756        -1.052160        -0.715279
 H        -0.745204         0.537004        -0.280982
 H         1.341774        -1.805887         2.124741
