19
Iteration:    28
 C         4.129306         1.722882         2.391123
 C         3.080630         0.878252         1.743373
 O         3.239915        -0.592218         1.543278
 C         2.502698        -0.403292         0.288177
 C         2.729061         1.102979         0.331212
 C         1.590955         1.182087         1.334648
 C         1.103912        -0.196118         0.844218
 C        -0.050641        -0.046051        -0.285517
 O         0.720182        -1.195148         1.768902
 H         4.124067         1.548409         3.500752
 H         5.189667         1.580890         2.006392
 H         3.706633         2.756576         2.334748
 H         2.682455        -1.166230        -0.519372
 H         3.157948         1.836727        -0.361750
 H         0.893667         2.054066         1.555077
 H        -0.633986         0.901012        -0.082909
 H         0.291942         0.027087        -1.397466
 H        -0.662797        -1.012744        -0.226709
 H         1.266315        -1.089592         2.526367
