19
Iteration:  4240
 C         3.961728         1.659202         2.743366
 C         3.064170         0.979245         1.708080
 O         3.354390        -0.380576         1.408827
 C         2.577732        -0.257967         0.159269
 C         2.581830         1.323551         0.372312
 C         1.498203         1.098585         1.342688
 C         1.039261        -0.303405         0.824636
 C         0.073954        -0.301977        -0.300956
 O         0.818425        -1.315116         1.709928
 H         3.382281         1.896943         3.683418
 H         4.793135         1.024021         3.028198
 H         4.435755         2.603875         2.533712
 H         2.829304        -0.988666        -0.624529
 H         2.931372         2.160599        -0.261200
 H         0.715928         1.781051         1.680362
 H         0.268977         0.465931        -1.259444
 H        -0.188024        -1.265694        -0.840931
 H        -0.822348         0.249139        -0.070632
 H         1.737251        -1.427783         2.127501
