19
Iteration:  3744
 C         3.814131         1.413531         2.817796
 C         3.047314         0.927882         1.601527
 O         3.447386        -0.417119         1.327619
 C         2.576455        -0.255822         0.224344
 C         2.678165         1.341101         0.273099
 C         1.534689         1.172652         1.296451
 C         1.150757        -0.127721         0.766946
 C         0.028334        -0.391202        -0.253675
 O         0.771930        -1.086913         1.802267
 H         3.850700         0.557685         3.426663
 H         4.841322         1.804328         2.553619
 H         3.270089         2.293245         3.281804
 H         2.726998        -0.869798        -0.676615
 H         3.037265         2.108422        -0.399121
 H         0.873742         1.907161         1.896453
 H         0.023305        -0.329702        -1.212630
 H        -0.168797        -1.389983        -0.199727
 H        -0.963546        -0.067193         0.179240
 H         1.461601        -1.165075         2.434661
