19
Iteration:   311
 C         4.039029         1.707189         2.549320
 C         3.091719         0.924182         1.679977
 O         3.379371        -0.505226         1.495832
 C         2.525472        -0.342797         0.266414
 C         2.595377         1.207398         0.297086
 C         1.601987         1.180129         1.459927
 C         1.046988        -0.218191         0.814484
 C        -0.015392        -0.054845        -0.241502
 O         0.712091        -1.379799         1.649677
 H         4.116420         1.169709         3.507476
 H         5.116777         1.807898         2.141299
 H         3.479921         2.619879         2.873540
 H         2.865093        -0.963402        -0.621324
 H         2.890197         2.081035        -0.336487
 H         1.116845         2.010986         1.786001
 H        -0.950969         0.083151         0.250205
 H         0.188844         0.673856        -1.015292
 H        -0.082739        -1.010289        -0.772681
 H         1.582402        -1.420738         2.041346
