19
Iteration:  2897charge 0 multiplicity 1
 C         3.749755         1.546057         2.785004
 C         3.090727         0.873371         1.635369
 O         3.424055        -0.506750         1.358800
 C         2.608416        -0.259126         0.166442
 C         2.658145         1.245426         0.222756
 C         1.592887         1.098794         1.382280
 C         1.145802        -0.174696         0.748094
 C        -0.077772        -0.157251        -0.180352
 O         0.838090        -1.129800         1.771919
 H         3.696079         0.828164         3.615329
 H         4.832617         1.801946         2.540694
 H         3.139097         2.421810         3.072739
 H         2.847277        -0.917389        -0.667117
 H         2.856010         1.924934        -0.550412
 H         0.974411         1.787960         1.907781
 H         0.111242         0.350214        -1.196082
 H        -0.260788        -1.200965        -0.420598
 H        -0.922825         0.206584         0.367829
 H         1.737138        -1.348758         2.206488
