19
Iteration:  4608charge 0 multiplicity 1
 C         3.679186         1.634998         2.821928
 C         3.068187         0.838946         1.676849
 O         3.422471        -0.537916         1.409468
 C         2.631793        -0.296039         0.149312
 C         2.783451         1.218035         0.319477
 C         1.553426         1.163058         1.159858
 C         1.121463        -0.182006         0.724503
 C        -0.027768        -0.231966        -0.161949
 O         0.783760        -1.116954         1.768573
 H         4.453806         2.367457         2.474749
 H         2.916949         2.171930         3.328956
 H         4.228910         1.067800         3.499697
 H         2.948814        -0.926271        -0.702548
 H         3.365543         1.932675        -0.349854
 H         1.054180         1.979859         1.601422
 H         0.056922         0.396260        -1.172504
 H         0.031120        -1.286357        -0.481638
 H        -0.998066        -0.140869         0.237979
 H         1.341759        -1.088920         2.518762
