19
Iteration:  1842
 C         3.997574         1.781414         2.510437
 C         3.127022         0.973451         1.617819
 O         3.459823        -0.422784         1.489258
 C         2.523090        -0.397880         0.368832
 C         2.485075         1.119751         0.321762
 C         1.616792         1.017447         1.648120
 C         1.111615        -0.293881         0.859219
 C         0.126229         0.104954        -0.273565
 O         0.584018        -1.395382         1.473872
 H         3.883013         1.541007         3.600330
 H         4.994455         1.506904         2.247486
 H         3.793181         2.809974         2.352480
 H         2.648840        -1.258004        -0.376529
 H         2.515071         1.944766        -0.322774
 H         1.243586         1.930456         1.867176
 H         0.178552         1.144569        -0.474909
 H         0.236305        -0.545447        -1.230800
 H        -0.830822        -0.080592         0.199259
 H         1.198460        -1.837328         2.183334
