19
Iteration:  3851charge 0 multiplicity 1
 C         3.909930         1.810335         2.542705
 C         3.079527         0.985782         1.742329
 O         3.402354        -0.438202         1.516438
 C         2.655972        -0.359137         0.302243
 C         2.595719         1.223520         0.341569
 C         1.584656         1.082142         1.453223
 C         1.168053        -0.274032         0.750978
 C         0.016857        -0.051002        -0.190329
 O         0.638937        -1.478682         1.508752
 H         3.792773         1.739065         3.590711
 H         4.991273         1.616352         2.470045
 H         3.701244         2.895414         2.439690
 H         2.933520        -0.991775        -0.546411
 H         2.831206         1.921513        -0.495690
 H         0.849592         1.901513         1.760282
 H         0.151802         0.781854        -0.855946
 H        -0.187854        -1.014807        -0.635815
 H        -0.841385         0.263585         0.495775
 H         1.401103        -1.728215         2.146983
