19
Iteration:   455
 C         3.910098         1.703084         2.630043
 C         3.149444         0.905957         1.625313
 O         3.368175        -0.563649         1.406995
 C         2.556218        -0.316943         0.235951
 C         2.709946         1.230820         0.308500
 C         1.615081         1.130583         1.418385
 C         1.088681        -0.205094         0.810240
 C        -0.055819        -0.139415        -0.251525
 O         0.679883        -1.267227         1.754699
 H         3.884024         1.293556         3.541151
 H         4.939350         1.692341         2.153475
 H         3.599662         2.782741         2.736758
 H         2.835331        -0.977338        -0.556587
 H         3.090507         1.971629        -0.363050
 H         1.081988         2.098013         1.902073
 H        -1.032957        -0.254224         0.199377
 H        -0.102345         0.857238        -0.629347
 H         0.200967        -0.747068        -1.156544
 H         1.461016        -1.403347         2.351383
