19
Iteration:   344
 C         3.853623         1.616091         2.677663
 C         3.045671         0.871993         1.672615
 O         3.411705        -0.529771         1.275766
 C         2.562916        -0.306778         0.133818
 C         2.678070         1.280410         0.295017
 C         1.613679         1.102037         1.418770
 C         1.083266        -0.239018         0.810474
 C         0.003349        -0.124244        -0.235540
 O         0.745302        -1.210765         1.868586
 H         3.599990         1.144756         3.614315
 H         4.939725         1.748166         2.458353
 H         3.575499         2.697927         2.664327
 H         2.804457        -0.898872        -0.794639
 H         3.029627         2.227158        -0.225699
 H         1.053234         1.830002         1.865939
 H        -0.684349         0.637066         0.004290
 H         0.394910         0.143324        -1.198767
 H        -0.524378        -1.097754        -0.226609
 H         1.625152        -1.259324         2.341144
