19
Iteration:  4870charge 0 multiplicity 1
 C         3.690405         1.505516         2.915495
 C         3.137096         0.997408         1.606588
 O         3.326558        -0.428995         1.406366
 C         2.582572        -0.445630         0.304844
 C         2.760260         1.126948         0.090023
 C         1.646991         1.167574         1.140374
 C         1.159645        -0.237156         0.727603
 C         0.064246        -0.306167        -0.319355
 O         0.673340        -0.902714         1.940387
 H         3.979009         0.517586         3.458673
 H         4.621554         2.079170         2.737360
 H         3.035664         2.054195         3.571461
 H         2.791561        -1.154547        -0.507351
 H         3.125819         1.823414        -0.668433
 H         1.161867         2.019434         1.740073
 H         0.514599         0.121544        -1.208803
 H        -0.104297        -1.313075        -0.463524
 H        -0.669406         0.380301        -0.113440
 H         1.460499        -1.173943         2.405045
