19
Iteration:  4753
 C         3.974500         1.834256         2.575279
 C         3.063717         0.958424         1.731550
 O         3.302835        -0.474986         1.708704
 C         2.616400        -0.439504         0.339846
 C         2.575921         1.072610         0.169110
 C         1.609729         1.117393         1.402854
 C         1.151091        -0.295144         0.757828
 C         0.166349         0.033770        -0.339732
 O         0.600580        -1.358336         1.597853
 H         3.631116         2.079538         3.542570
 H         4.998214         1.357237         2.673888
 H         4.165467         2.724416         1.999497
 H         2.968888        -1.207138        -0.361696
 H         2.643835         1.782875        -0.609691
 H         0.987138         1.953858         1.845743
 H         0.476181         0.748795        -1.059547
 H        -0.099684        -0.966518        -0.962521
 H        -0.795178         0.562446         0.059888
 H         1.084261        -1.359218         2.421357
