19
Iteration:  1004
 C         3.919228         1.587316         2.705793
 C         3.118714         0.956944         1.597688
 O         3.396066        -0.476817         1.360862
 C         2.547048        -0.432202         0.239272
 C         2.601024         1.217933         0.252111
 C         1.568535         1.125341         1.355331
 C         1.125200        -0.203812         0.855298
 C         0.087313        -0.075597        -0.236210
 O         0.681071        -1.219888         1.774469
 H         3.761794         1.063045         3.644469
 H         4.953604         1.665500         2.647344
 H         3.476056         2.575606         2.784030
 H         2.999930        -1.202990        -0.462629
 H         2.799168         1.981002        -0.552321
 H         0.922271         1.993071         1.640249
 H        -0.909055         0.360223         0.105615
 H         0.461139         0.631571        -1.006005
 H        -0.188673        -0.998121        -0.534910
 H         1.298210        -1.299448         2.422124
