19
Iteration:  3206
 C         4.006880         1.823258         2.497304
 C         3.001944         0.918721         1.761952
 O         3.388735        -0.489688         1.533395
 C         2.560793        -0.298716         0.277431
 C         2.630167         1.257678         0.321025
 C         1.568212         1.074485         1.502331
 C         1.102205        -0.352783         0.821720
 C         0.084202         0.042458        -0.219536
 O         0.627515        -1.446674         1.545270
 H         4.085768         1.547202         3.601743
 H         4.992440         1.648617         2.055799
 H         3.730758         2.855149         2.385743
 H         3.083360        -0.851814        -0.494045
 H         2.949837         1.961221        -0.504242
 H         0.895568         1.780739         1.890061
 H         0.437791         0.689186        -1.112158
 H        -0.086718        -0.904943        -0.820757
 H        -0.810513         0.263929         0.215175
 H         1.413490        -1.861547         2.070982
