19
Iteration:  4458
 C         3.703104         1.653613         2.887068
 C         3.100370         0.995299         1.595149
 O         3.417468        -0.401755         1.405750
 C         2.626620        -0.479721         0.241736
 C         2.567385         1.196418         0.116548
 C         1.582437         1.083677         1.361833
 C         1.178612        -0.271602         0.773643
 C         0.040258        -0.059680        -0.285731
 O         0.814626        -1.195955         1.780721
 H         4.445738         0.909434         3.442427
 H         4.505176         2.334102         2.396666
 H         2.932649         2.130149         3.502919
 H         2.698446        -1.439332        -0.304700
 H         2.798979         1.953348        -0.599138
 H         0.919865         1.756061         1.868332
 H         0.159931         0.824140        -1.003190
 H        -0.078810        -1.012743        -0.914644
 H        -0.924542        -0.070879         0.139289
 H         1.662522        -1.496048         2.290080
