19
Iteration:  4804
 C         3.819364         1.679189         2.721971
 C         3.115238         0.911813         1.702338
 O         3.218920        -0.529309         1.555433
 C         2.628740        -0.396888         0.264913
 C         2.786006         1.122995         0.243953
 C         1.663045         1.157206         1.256327
 C         1.107888        -0.167570         0.734953
 C         0.001317        -0.277155        -0.299650
 O         0.724439        -1.025576         1.717889
 H         3.969867         0.982120         3.598045
 H         4.798770         1.979942         2.388786
 H         3.329270         2.588682         2.996922
 H         3.077972        -1.085199        -0.449612
 H         2.937174         1.857567        -0.488401
 H         1.104761         2.062210         1.627395
 H         0.070693         0.376821        -1.182790
 H         0.045398        -1.262241        -0.692539
 H        -0.945776        -0.101703         0.096730
 H         1.468354        -1.136202         2.324660
