19
Iteration:  1726
 C         3.775824         1.327968         2.882852
 C         3.038122         0.958997         1.619713
 O         3.413049        -0.428663         1.316110
 C         2.542376        -0.292886         0.087283
 C         2.648119         1.287564         0.192456
 C         1.583864         1.230751         1.327127
 C         1.141444        -0.228349         0.777655
 C        -0.074683        -0.233280        -0.189234
 O         0.924369        -1.062520         1.828601
 H         3.713323         0.484405         3.614355
 H         4.927999         1.310668         2.945755
 H         3.252985         2.118809         3.364884
 H         2.687609        -1.070397        -0.708521
 H         2.909854         2.023553        -0.510582
 H         1.023239         2.028899         1.802223
 H         0.194988        -0.099055        -1.329236
 H        -0.403921        -1.211088        -0.147866
 H        -0.864505         0.434396         0.057700
 H         1.719100        -1.021681         2.301578
