19
Iteration:  3972
 C         3.629880         1.484678         2.803317
 C         3.005279         0.953504         1.663309
 O         3.328773        -0.459157         1.445477
 C         2.596904        -0.289932         0.118300
 C         2.689929         1.289349         0.183790
 C         1.579710         1.199315         1.247454
 C         1.159916        -0.196153         0.730217
 C        -0.036200        -0.195668        -0.132147
 O         1.035097        -1.214275         1.746499
 H         3.339071         0.956891         3.623504
 H         4.700203         1.523242         2.931399
 H         3.386167         2.534117         3.009197
 H         2.788964        -1.178386        -0.523014
 H         3.286519         2.022182        -0.403534
 H         0.905999         1.808637         1.788363
 H        -0.110801         0.652828        -0.734281
 H        -0.155503        -1.122547        -0.718276
 H        -0.978328        -0.326128         0.641659
 H         1.931801        -1.295054         2.021330
