19
Iteration:  3024
 C         3.828838         1.698756         2.664001
 C         3.047563         0.947877         1.693075
 O         3.362314        -0.537552         1.389505
 C         2.532888        -0.321286         0.108875
 C         2.656448         1.247737         0.261286
 C         1.618667         1.037803         1.480439
 C         1.131950        -0.219304         0.827502
 C         0.085388        -0.090599        -0.199559
 O         0.770221        -1.258614         1.680256
 H         3.742817         1.169978         3.644895
 H         4.887608         1.709712         2.395657
 H         3.408477         2.642591         2.865723
 H         2.778360        -1.008575        -0.686981
 H         2.986868         1.999690        -0.421063
 H         0.853548         1.700797         1.860066
 H         0.312939         0.740560        -0.740083
 H        -0.003402        -1.044127        -0.774847
 H        -0.961738         0.204320         0.342218
 H         1.467966        -1.256933         2.452746
