19
Iteration:  4965
 C         3.929485         1.855285         2.578480
 C         3.122622         1.010743         1.648275
 O         3.429757        -0.413089         1.554576
 C         2.556838        -0.524882         0.415706
 C         2.606716         1.035355         0.247305
 C         1.594937         1.041860         1.451017
 C         1.134015        -0.238619         0.859741
 C         0.239845        -0.007276        -0.375408
 O         0.443602        -1.319662         1.588994
 H         3.392467         2.270286         3.452088
 H         4.721829         1.197835         2.896312
 H         4.409686         2.709215         2.107089
 H         2.707192        -1.299400        -0.328384
 H         2.837316         1.741672        -0.550196
 H         1.068865         1.946214         1.848943
 H         0.310238         1.062755        -0.891610
 H         0.568073        -0.844412        -0.929075
 H        -0.830412         0.024978        -0.123405
 H         1.033316        -1.426324         2.410121
