19
Iteration:  1738charge 0 multiplicity 1
 C         3.812612         1.324061         2.925041
 C         3.074407         0.946584         1.682206
 O         3.342005        -0.419178         1.298551
 C         2.460218        -0.240890         0.151997
 C         2.713078         1.301417         0.181512
 C         1.606294         1.226872         1.214153
 C         1.074042        -0.156448         0.800090
 C        -0.052292        -0.284445        -0.197836
 O         0.936880        -1.160468         1.843443
 H         3.598199         0.476790         3.570445
 H         4.827259         1.588351         2.510291
 H         3.574557         2.288085         3.360669
 H         2.803772        -0.868601        -0.664606
 H         3.043609         1.894446        -0.613575
 H         0.928707         2.044742         1.688640
 H         0.391359         0.244904        -1.172170
 H        -0.413718        -1.211210        -0.367099
 H        -0.876067         0.337199         0.121880
 H         1.815387        -1.183053         2.292163
