19
Iteration:  4953charge 0 multiplicity 1
 C         3.950854         1.839797         2.518768
 C         3.034433         0.936158         1.712863
 O         3.432212        -0.462500         1.592493
 C         2.574562        -0.490891         0.443762
 C         2.728398         1.076467         0.272915
 C         1.581715         1.178347         1.390514
 C         1.099950        -0.253947         0.854678
 C         0.127213        -0.002897        -0.354736
 O         0.536265        -1.326419         1.571351
 H         3.416889         2.046415         3.435414
 H         4.884681         1.406029         2.790653
 H         4.108640         2.762286         1.941064
 H         2.846146        -1.330379        -0.175338
 H         3.032951         1.679291        -0.533507
 H         0.771062         1.799364         1.837414
 H         0.618744         0.907648        -0.913141
 H         0.103025        -0.665523        -1.219071
 H        -0.976190        -0.029940        -0.145116
 H         0.943449        -1.618339         2.389067
