19
Iteration:   751
 C         3.935966         1.890937         2.533920
 C         3.081070         0.841226         1.746784
 O         3.528842        -0.538241         1.353037
 C         2.539028        -0.426805         0.300331
 C         2.597165         1.178161         0.383187
 C         1.588686         0.993673         1.513508
 C         1.076118        -0.247099         0.849363
 C         0.115131         0.050761        -0.285406
 O         0.543648        -1.293921         1.648791
 H         3.928389         1.746165         3.632099
 H         5.028196         1.863978         2.232295
 H         3.401808         2.753018         2.295257
 H         2.725303        -0.887961        -0.771535
 H         2.915720         1.827340        -0.452163
 H         1.201720         1.687351         2.129263
 H        -0.736470         0.626337         0.076088
 H         0.485043         0.652045        -1.148698
 H        -0.209860        -0.986884        -0.598845
 H         1.312289        -1.612147         2.167371
