19
Iteration:  2576
 C         3.851433         1.679992         2.773512
 C         3.054355         0.998510         1.662578
 O         3.384685        -0.482431         1.343839
 C         2.489049        -0.347796         0.195290
 C         2.759245         1.290137         0.280386
 C         1.619899         1.105113         1.380424
 C         1.114085        -0.259391         0.813398
 C        -0.036309        -0.077615        -0.205855
 O         0.789934        -1.405196         1.683248
 H         3.593769         1.254826         3.782323
 H         4.920421         1.493295         2.667688
 H         3.500337         2.765958         2.737425
 H         2.874992        -0.960742        -0.700414
 H         2.899423         2.230259        -0.366510
 H         1.018692         1.830921         1.927622
 H         0.286129         0.577542        -0.950427
 H        -0.213859        -1.064087        -0.717276
 H        -1.011040         0.398351         0.193704
 H         1.532181        -1.264755         2.277593
