19
Iteration:   900charge 0 multiplicity 1
 C         3.860849         1.645336         2.736019
 C         3.131027         1.029231         1.658029
 O         3.417143        -0.508249         1.333130
 C         2.533880        -0.399628         0.216719
 C         2.644466         1.137048         0.210150
 C         1.622421         1.054864         1.378281
 C         1.117196        -0.248055         0.843730
 C         0.087884        -0.004681        -0.167665
 O         0.650442        -1.222121         1.746767
 H         3.466182         1.285552         3.674788
 H         4.965490         1.547754         2.448844
 H         3.734733         2.778911         2.701817
 H         2.650309        -1.073305        -0.563826
 H         2.597496         1.765427        -0.725989
 H         0.958312         1.740181         1.738888
 H        -0.836264         0.255757         0.312379
 H         0.402371         0.719807        -0.884505
 H        -0.012268        -0.958054        -0.873514
 H         1.434335        -1.213303         2.476143
