19
Iteration:  4021charge 0 multiplicity 1
 C         3.739601         1.759375         2.776484
 C         3.079956         0.891288         1.688946
 O         3.493755        -0.437580         1.315908
 C         2.583325        -0.303554         0.182802
 C         2.639431         1.335575         0.295642
 C         1.578869         1.054683         1.388980
 C         1.146508        -0.289473         0.779388
 C         0.030333        -0.204254        -0.186341
 O         0.715325        -1.317598         1.673505
 H         3.286438         1.571395         3.864698
 H         4.814186         1.506748         3.044937
 H         4.051184         2.827163         2.620766
 H         2.871490        -0.739413        -0.764328
 H         2.827038         2.223167        -0.390581
 H         0.954938         1.704607         2.059570
 H         0.372172         0.570433        -1.014015
 H        -0.289117        -1.127918        -0.704181
 H        -0.839711         0.096855         0.307819
 H         1.445723        -1.742343         2.113231
