19
Iteration:  4692charge 0 multiplicity 1
 C         3.854851         1.709702         2.677852
 C         3.146870         0.906866         1.604502
 O         3.429280        -0.458593         1.472167
 C         2.617730        -0.360907         0.275564
 C         2.635916         1.166853         0.273597
 C         1.542583         1.056816         1.411280
 C         1.132702        -0.266040         0.792178
 C         0.168733        -0.187429        -0.366326
 O         0.537066        -1.120828         1.754859
 H         3.094501         2.503866         2.890182
 H         3.970655         1.130946         3.632898
 H         4.917727         2.139702         2.494982
 H         2.854354        -1.151793        -0.461122
 H         2.713123         1.997030        -0.465065
 H         0.910951         1.778625         1.910738
 H         0.733115         0.445510        -1.123759
 H         0.131499        -1.130018        -0.809576
 H        -0.824981         0.177477        -0.097418
 H         1.255347        -1.195424         2.459787
