19
Iteration:  2806charge 0 multiplicity 1
 C         3.914129         1.648290         2.731459
 C         3.077947         0.864802         1.697918
 O         3.333307        -0.535760         1.354777
 C         2.523163        -0.218525         0.146751
 C         2.637644         1.216967         0.309976
 C         1.522369         1.153907         1.330865
 C         1.050005        -0.216722         0.817220
 C         0.045391        -0.200983        -0.230913
 O         0.832108        -1.238998         1.744399
 H         3.679418         1.447582         3.822630
 H         4.980991         1.386201         2.614668
 H         3.824065         2.739750         2.696386
 H         2.823639        -0.925510        -0.658102
 H         3.173986         2.027920        -0.302053
 H         1.023345         2.031820         1.951748
 H         0.397786         0.569865        -0.812564
 H         0.013200        -0.993631        -0.991327
 H        -1.061520         0.057329         0.159489
 H         1.658722        -1.188644         2.375960
