19
Iteration:   880charge 0 multiplicity 1
 C         3.775179         1.567986         2.718722
 C         3.135629         0.838227         1.626811
 O         3.478396        -0.487108         1.360146
 C         2.559537        -0.386695         0.154001
 C         2.680998         1.240721         0.214547
 C         1.632748         1.208290         1.341163
 C         1.106956        -0.242475         0.815861
 C        -0.027066        -0.117930        -0.200967
 O         0.675662        -1.122722         1.877849
 H         3.326661         1.160935         3.599160
 H         4.901644         1.595729         2.641880
 H         3.588181         2.623101         2.718865
 H         2.859598        -1.063722        -0.663423
 H         3.123779         2.066183        -0.406809
 H         1.184526         1.983585         1.864488
 H        -0.943458        -0.200854         0.269300
 H         0.092004         0.723789        -0.845764
 H        -0.024905        -0.974761        -1.012560
 H         1.473735        -1.715644         2.074627
