19
Iteration:    46
 C         4.102283         1.715039         2.403931
 C         3.182359         0.885005         1.633258
 O         3.334911        -0.511856         1.611880
 C         2.535123        -0.429150         0.328914
 C         2.668525         1.169503         0.268471
 C         1.579113         1.131945         1.431195
 C         1.005113        -0.227876         0.811254
 C         0.016795        -0.053130        -0.254828
 O         0.571222        -1.199994         1.735049
 H         4.204762         1.475265         3.415736
 H         5.124133         1.520948         1.933328
 H         3.886762         2.717484         2.217132
 H         2.887012        -1.162348        -0.330288
 H         3.034909         1.902355        -0.470593
 H         1.080635         1.933744         1.843814
 H        -0.405669         0.980374        -0.266539
 H         0.438231        -0.276891        -1.271094
 H        -0.758520        -0.672495        -0.076824
 H         1.339873        -1.592255         2.087233
