19
Iteration:  1356charge 0 multiplicity 1
 C         3.995643         1.724712         2.602469
 C         3.095083         0.911254         1.676389
 O         3.264381        -0.547777         1.495927
 C         2.505287        -0.371125         0.203303
 C         2.710365         1.220025         0.319476
 C         1.591079         1.099654         1.407879
 C         1.051283        -0.227994         0.778638
 C         0.010097        -0.025727        -0.201511
 O         0.765859        -1.285473         1.651892
 H         4.284838         1.084959         3.438946
 H         4.996713         1.890204         2.053292
 H         3.601674         2.649692         2.983633
 H         2.863741        -1.223765        -0.474913
 H         2.793845         1.943658        -0.491209
 H         1.069277         2.030093         1.919244
 H        -0.819994         0.713666        -0.012393
 H         0.301153         0.295327        -1.142052
 H        -0.271901        -1.033797        -0.311221
 H         1.597500        -1.258670         2.319583
