19
Iteration:  3722charge 0 multiplicity 1
 C         3.882382         1.588739         2.842068
 C         3.025826         0.883181         1.700777
 O         3.341969        -0.463074         1.354431
 C         2.556978        -0.225826         0.081936
 C         2.694663         1.305603         0.259494
 C         1.610925         1.198806         1.291901
 C         1.058808        -0.283745         0.803890
 C         0.013565        -0.329029        -0.238991
 O         0.800024        -1.163282         1.788647
 H         4.113841         0.738206         3.434527
 H         4.854830         1.997368         2.481485
 H         3.391607         2.390565         3.476040
 H         3.013741        -0.876472        -0.681565
 H         2.953077         2.114811        -0.353251
 H         0.990666         2.080384         1.691289
 H         0.412712        -0.065817        -1.100796
 H        -0.283110        -1.289862        -0.497140
 H        -0.975637         0.142695        -0.039890
 H         1.549811        -1.123965         2.490441
