19
Iteration:  2683
 C         3.922154         1.590748         2.748552
 C         3.098976         0.917726         1.691931
 O         3.361365        -0.497693         1.399074
 C         2.575151        -0.224377         0.135695
 C         2.708613         1.241035         0.308088
 C         1.518253         1.152004         1.319028
 C         1.064740        -0.188361         0.814359
 C         0.000594        -0.234878        -0.266360
 O         0.768411        -1.236024         1.786456
 H         3.840714         0.917836         3.616025
 H         4.931051         1.817848         2.402895
 H         3.558992         2.598043         3.097965
 H         2.715286        -0.888127        -0.732762
 H         2.914829         2.096227        -0.345096
 H         0.909904         1.889858         1.746077
 H         0.305970         0.567932        -0.984577
 H        -0.170152        -1.135230        -0.906869
 H        -0.989267         0.069968         0.065698
 H         1.657920        -1.506558         2.146175
