19
Iteration:  2671charge 0 multiplicity 1
 C         3.874144         1.473758         2.780519
 C         3.039122         0.930167         1.642389
 O         3.333886        -0.445734         1.392534
 C         2.502093        -0.309661         0.177952
 C         2.662278         1.324006         0.242423
 C         1.576460         1.200655         1.366588
 C         1.132926        -0.203326         0.753564
 C         0.011136        -0.232739        -0.252684
 O         0.837669        -1.173226         1.764186
 H         3.759422         0.811552         3.638528
 H         4.972133         1.492247         2.692830
 H         3.348086         2.432558         3.018827
 H         2.836703        -1.002000        -0.583045
 H         3.218056         1.940259        -0.527716
 H         0.968827         1.949460         1.887261
 H        -0.044696         0.471726        -1.179200
 H         0.134153        -1.320531        -0.465857
 H        -0.871425        -0.167324         0.332034
 H         1.767116        -1.155261         2.232265
