19
Iteration:   182
 C         3.928146         1.483075         2.780625
 C         3.069741         0.994601         1.646566
 O         3.339038        -0.490170         1.406064
 C         2.574939        -0.345110         0.245226
 C         2.763072         1.210058         0.135415
 C         1.581884         1.240794         1.187036
 C         1.099320        -0.244503         0.806180
 C        -0.116481        -0.174508        -0.154705
 O         0.777567        -1.162196         1.848213
 H         3.495321         0.961935         3.686383
 H         4.932446         1.392469         2.623444
 H         3.942754         2.602095         2.866866
 H         2.739636        -1.048527        -0.633668
 H         3.013032         1.908204        -0.646782
 H         1.195518         2.218669         1.407030
 H        -0.058345        -0.755733        -1.051175
 H        -0.862431        -0.710733         0.392380
 H        -0.307698         0.883342        -0.529535
 H         1.649416        -1.248847         2.149913
