19
Iteration:  1069
 C         3.790681         1.509944         2.752083
 C         3.043925         0.850592         1.671871
 O         3.253435        -0.564816         1.417537
 C         2.532634        -0.302731         0.083101
 C         2.785334         1.274025         0.230290
 C         1.637172         1.214321         1.338822
 C         1.112728        -0.190027         0.773612
 C        -0.082891        -0.244531        -0.207940
 O         0.929860        -1.047205         1.831969
 H         3.400723         1.144056         3.739160
 H         4.854677         1.382532         2.686476
 H         3.581830         2.596978         2.588239
 H         2.951991        -0.929774        -0.782288
 H         3.341917         1.837264        -0.590300
 H         0.948760         1.938407         1.697442
 H        -0.963649        -0.510700         0.494288
 H        -0.164140         0.730149        -0.714249
 H        -0.076622        -1.003020        -0.924097
 H         1.771245        -0.994089         2.199607
