19
Iteration:  3386
 C         3.869593         1.723037         2.597081
 C         3.002223         0.923615         1.755652
 O         3.488255        -0.410035         1.395540
 C         2.558677        -0.329688         0.273882
 C         2.510000         1.238456         0.311339
 C         1.601960         1.093197         1.485737
 C         1.134930        -0.273134         0.832880
 C         0.174351        -0.075557        -0.258033
 O         0.644501        -1.409803         1.595704
 H         3.903010         1.484489         3.672407
 H         4.943471         1.464350         2.357716
 H         3.653216         2.812109         2.328286
 H         2.762706        -1.119304        -0.491596
 H         2.731562         2.187155        -0.302854
 H         0.991983         1.916720         1.856140
 H         0.573309         0.518981        -0.967446
 H        -0.120259        -1.027402        -0.621388
 H        -0.723257         0.559150         0.147832
 H         1.350090        -1.549908         2.264200
