19
Iteration:   611charge 0 multiplicity 1
 C         3.704799         1.453940         2.842600
 C         3.098090         0.949939         1.621500
 O         3.402897        -0.442295         1.296060
 C         2.594832        -0.313522         0.090406
 C         2.680958         1.208118         0.155077
 C         1.707088         1.167438         1.279540
 C         1.134159        -0.146327         0.846835
 C        -0.107128        -0.207550        -0.164692
 O         0.852320        -1.120803         1.894201
 H         3.244325         0.760320         3.681801
 H         4.751711         1.160951         2.970452
 H         3.523907         2.438006         3.123818
 H         2.849241        -1.034071        -0.772586
 H         2.684000         1.912740        -0.665657
 H         1.223805         1.989966         1.625600
 H        -0.919920         0.566979         0.248700
 H         0.077928         0.206870        -1.298968
 H        -0.513458        -1.207906        -0.210082
 H         1.664387        -1.383907         2.280958
