19
Iteration:  1343charge 0 multiplicity 1
 C         3.994972         1.595517         2.679506
 C         3.096276         0.933154         1.665498
 O         3.304392        -0.470820         1.455643
 C         2.508208        -0.352660         0.227795
 C         2.645578         1.176545         0.223358
 C         1.626170         1.191961         1.333308
 C         1.103497        -0.215710         0.843074
 C        -0.052653        -0.104909        -0.245470
 O         0.794930        -1.278456         1.715313
 H         4.012688         0.960077         3.568895
 H         4.983960         1.824725         2.305911
 H         3.466285         2.555878         3.010744
 H         2.733981        -0.987028        -0.611683
 H         3.159732         1.981172        -0.364364
 H         0.922168         2.064171         1.818449
 H        -0.742655         0.770405         0.176174
 H         0.424848         0.218114        -1.159400
 H        -0.682584        -0.979635        -0.426808
 H         1.480269        -1.375600         2.307573
