19
Iteration:  3747charge 0 multiplicity 1
 C         3.807908         1.433440         2.813287
 C         3.097190         0.909822         1.608279
 O         3.471076        -0.416286         1.336222
 C         2.548136        -0.257325         0.219693
 C         2.657210         1.349586         0.263006
 C         1.520683         1.175298         1.290085
 C         1.112796        -0.173555         0.758190
 C         0.017752        -0.364104        -0.246925
 O         0.785707        -1.057899         1.804481
 H         3.729057         0.566319         3.481869
 H         4.847945         1.755052         2.681999
 H         3.405839         2.218373         3.387494
 H         2.804358        -0.930106        -0.622630
 H         3.075589         2.180172        -0.445241
 H         0.864194         1.797225         1.874363
 H         0.085440        -0.287643        -1.400297
 H        -0.159977        -1.481872        -0.211242
 H        -1.000149        -0.155569         0.193544
 H         1.517972        -1.200140         2.421505
