19
Iteration:  4771
 C         3.974304         1.763780         2.587934
 C         3.045605         1.022822         1.697489
 O         3.283496        -0.402939         1.608181
 C         2.531237        -0.473662         0.404309
 C         2.794142         1.090440         0.315165
 C         1.526100         1.125195         1.224983
 C         1.084433        -0.295124         0.822856
 C         0.086174         0.002255        -0.330261
 O         0.681350        -1.359715         1.629524
 H         3.728266         1.579093         3.677300
 H         4.887697         1.285710         2.336308
 H         3.967787         2.819486         2.411296
 H         2.879309        -1.299166        -0.214234
 H         3.104172         1.826883        -0.409036
 H         0.800706         1.964476         1.263767
 H         0.618427         0.816736        -0.913889
 H        -0.129487        -0.864098        -0.908635
 H        -0.785952         0.401403         0.089769
 H         1.393038        -1.426625         2.288088
