19
Iteration:    34
 C         4.126324         1.705641         2.354904
 C         3.140792         0.868440         1.666434
 O         3.248444        -0.550174         1.559516
 C         2.493038        -0.413019         0.340212
 C         2.721536         1.132167         0.374044
 C         1.555359         1.174609         1.384680
 C         1.129771        -0.212736         0.807724
 C        -0.041516        -0.055295        -0.297489
 O         0.664468        -1.207341         1.763569
 H         4.013415         1.495948         3.399407
 H         5.178716         1.658138         2.022113
 H         3.736993         2.700970         2.302314
 H         2.732633        -1.070102        -0.442506
 H         3.250525         1.827483        -0.261228
 H         0.925273         1.976278         1.515517
 H        -0.508168         0.911508        -0.088720
 H         0.268119        -0.039295        -1.337941
 H        -0.698234        -0.843736        -0.155247
 H         1.396336        -1.167093         2.407630
