19
Iteration:   756
 C         3.905956         1.838562         2.527799
 C         3.076103         0.861001         1.741077
 O         3.550994        -0.569286         1.343327
 C         2.544789        -0.352858         0.291833
 C         2.598276         1.168699         0.320244
 C         1.601999         1.011780         1.547023
 C         1.068135        -0.246789         0.847704
 C         0.129009         0.006022        -0.283319
 O         0.544639        -1.289953         1.664810
 H         3.860391         1.719029         3.635679
 H         4.943615         1.884783         2.296660
 H         3.300923         2.802000         2.318631
 H         2.696000        -0.901196        -0.592058
 H         3.041233         1.805480        -0.444483
 H         1.109864         1.774408         2.314225
 H        -0.594955         0.761662         0.164239
 H         0.419836         0.597149        -1.166664
 H        -0.262958        -0.891214        -0.754433
 H         1.276834        -1.519352         2.276949
