19
Iteration:   176
 C         3.954584         1.491153         2.829948
 C         3.047834         0.988781         1.612489
 O         3.281813        -0.509757         1.441007
 C         2.553495        -0.370899         0.253319
 C         2.754337         1.228189         0.135867
 C         1.577192         1.256539         1.140522
 C         1.106652        -0.206559         0.761074
 C        -0.070891        -0.185973        -0.128982
 O         0.822455        -1.156591         1.809002
 H         3.592582         0.991506         3.741789
 H         5.094870         1.389131         2.474946
 H         3.912347         2.566282         2.950010
 H         2.561546        -1.107408        -0.506945
 H         3.003950         1.870469        -0.749278
 H         1.054372         2.188211         1.530541
 H        -0.034653        -0.747997        -1.121407
 H        -0.808879        -0.754617         0.492193
 H        -0.450096         0.873653        -0.243018
 H         1.740360        -1.283205         2.265523
