19
Iteration:  4727charge 0 multiplicity 1
 C         3.940797         1.913235         2.524862
 C         3.092741         0.879048         1.796225
 O         3.482412        -0.488286         1.480347
 C         2.604317        -0.456882         0.334700
 C         2.751664         1.145371         0.356571
 C         1.542588         1.040223         1.450084
 C         1.080487        -0.239404         0.800803
 C         0.143459        -0.092749        -0.342618
 O         0.427576        -1.260066         1.618916
 H         3.163092         2.410099         3.190813
 H         4.668081         1.510446         3.145036
 H         4.277177         2.697276         1.846328
 H         2.725544        -1.308736        -0.352012
 H         3.032189         2.030056        -0.326166
 H         1.078494         1.910895         1.870414
 H         0.683306         0.573279        -1.193007
 H         0.042351        -1.089752        -0.725085
 H        -0.792404         0.355485        -0.235771
 H         1.097804        -1.653717         2.236521
