19
Iteration:  4274
 C         3.878704         1.779786         2.551538
 C         3.015673         0.978441         1.710825
 O         3.450110        -0.347561         1.495525
 C         2.609710        -0.372342         0.243033
 C         2.544343         1.167088         0.321832
 C         1.546309         0.982454         1.510890
 C         1.144123        -0.271495         0.892931
 C         0.058754        -0.049364        -0.308416
 O         0.744041        -1.400503         1.550893
 H         3.267958         2.106033         3.431732
 H         4.674443         1.181972         3.059623
 H         4.274712         2.683657         2.151112
 H         2.824303        -1.157044        -0.512150
 H         2.842023         2.013714        -0.332893
 H         0.901888         1.842978         1.912450
 H         0.444131         0.952902        -0.836505
 H         0.062274        -0.970358        -1.001804
 H        -0.933943        -0.050770         0.143149
 H         1.378369        -1.478890         2.257280
