19
Iteration:  3829charge 0 multiplicity 1
 C         3.885144         1.881436         2.731042
 C         3.110613         0.965482         1.739112
 O         3.388124        -0.461485         1.504204
 C         2.573395        -0.360124         0.146467
 C         2.763186         1.208039         0.287257
 C         1.593542         1.065297         1.324045
 C         1.085466        -0.337642         0.793255
 C        -0.114540        -0.063878        -0.170317
 O         0.740001        -1.440643         1.571130
 H         3.729092         1.961906         3.802009
 H         4.941917         1.548454         2.655846
 H         3.812051         2.950013         2.346315
 H         2.808677        -1.013946        -0.702932
 H         3.023130         2.057822        -0.352682
 H         0.922108         1.862066         1.819789
 H         0.104725         0.911984        -0.626251
 H        -0.173003        -0.925011        -0.834391
 H        -1.059239         0.090609         0.422943
 H         1.492804        -1.590610         2.137598
