19
Iteration:   802charge 0 multiplicity 1
 C         3.923584         1.589430         2.821650
 C         3.090074         0.957353         1.636910
 O         3.419451        -0.448438         1.406444
 C         2.564091        -0.372473         0.187816
 C         2.650051         1.198140         0.183927
 C         1.547454         1.176318         1.364284
 C         1.142593        -0.247541         0.823980
 C        -0.076124        -0.144970        -0.252357
 O         0.747460        -1.191237         1.759936
 H         3.873714         0.963566         3.682803
 H         4.978111         1.341663         2.514222
 H         3.701434         2.660410         3.076066
 H         2.754940        -0.974976        -0.650339
 H         2.954314         1.793667        -0.666316
 H         0.908831         2.011033         1.651933
 H        -0.837748         0.505021         0.092437
 H         0.235723         0.405001        -1.100755
 H        -0.346337        -1.178897        -0.713375
 H         1.419990        -1.427939         2.345042
