19
Iteration:  4012
 C         3.727420         1.756866         2.907652
 C         3.089487         0.931662         1.679528
 O         3.440341        -0.447885         1.278753
 C         2.576812        -0.316010         0.109552
 C         2.673185         1.335366         0.271146
 C         1.596963         1.045701         1.341928
 C         1.146593        -0.324317         0.762119
 C        -0.023990        -0.167209        -0.183670
 O         0.790933        -1.312678         1.735724
 H         3.186728         1.820193         3.941294
 H         4.724364         1.280873         2.949066
 H         3.626741         2.786452         2.527641
 H         2.890793        -0.993642        -0.687400
 H         3.277668         2.132144        -0.255455
 H         1.067363         1.741505         1.948660
 H         0.066811         0.662165        -0.963114
 H        -0.224225        -1.128064        -0.695267
 H        -0.931518         0.080762         0.273428
 H         1.594988        -1.625703         2.149794
