19
Iteration:   626charge 0 multiplicity 1
 C         3.691020         1.464932         2.924695
 C         3.153937         0.880812         1.549430
 O         3.446430        -0.524958         1.244725
 C         2.546571        -0.294569         0.091560
 C         2.715517         1.264033         0.160215
 C         1.641774         1.162974         1.280579
 C         1.064830        -0.211990         0.802696
 C        -0.061570        -0.185110        -0.120355
 O         0.821331        -1.069146         1.905640
 H         3.229375         0.939899         3.778087
 H         4.764804         1.502759         2.892204
 H         3.373605         2.560289         2.876123
 H         2.815352        -0.882381        -0.746211
 H         3.065606         2.105267        -0.443100
 H         1.113923         2.033383         1.816595
 H        -1.014918         0.171978         0.218600
 H         0.300228         0.155503        -1.079831
 H        -0.344009        -1.302430        -0.198740
 H         1.806392        -1.013318         2.294405
