19
Iteration:  3471
 C         3.886102         1.664061         2.792580
 C         3.100596         0.960288         1.678252
 O         3.429145        -0.435716         1.422229
 C         2.583854        -0.312239         0.197083
 C         2.635362         1.220663         0.295484
 C         1.591143         1.112865         1.344409
 C         1.116317        -0.269881         0.751816
 C        -0.074622        -0.140880        -0.294576
 O         0.771597        -1.297507         1.734453
 H         4.056987         1.050084         3.603108
 H         4.683989         2.105573         2.278074
 H         3.289636         2.454664         3.276363
 H         2.923518        -1.135654        -0.495965
 H         2.660386         2.006277        -0.526738
 H         1.042049         1.876780         1.873485
 H         0.103285         0.700678        -0.923825
 H        -0.093528        -0.986754        -0.973838
 H        -1.172421        -0.049249         0.088016
 H         1.647474        -1.375785         2.200850
