19
Iteration:  3181charge 0 multiplicity 1
 C         4.041470         1.844143         2.587481
 C         3.130046         0.927877         1.700155
 O         3.360153        -0.444243         1.523275
 C         2.559335        -0.408141         0.315956
 C         2.620680         1.224164         0.348715
 C         1.570465         1.032594         1.488008
 C         1.111217        -0.271783         0.785223
 C        -0.013879         0.010418        -0.222927
 O         0.671314        -1.400121         1.499360
 H         3.844790         1.676933         3.599384
 H         5.096591         1.585677         2.438225
 H         3.868528         2.901128         2.293125
 H         2.935473        -1.132849        -0.437550
 H         2.541007         2.009326        -0.299903
 H         0.793074         1.823688         1.720172
 H         0.019133         0.828102        -0.981730
 H        -0.051456        -0.840872        -0.906275
 H        -0.861036        -0.089402         0.343750
 H         1.490404        -1.833240         1.927276
