19
Iteration:   848
 C         3.869336         1.562372         2.814257
 C         3.075365         0.934213         1.684295
 O         3.267405        -0.590997         1.371055
 C         2.521834        -0.281487         0.062178
 C         2.755744         1.158912         0.267878
 C         1.602315         1.229818         1.290393
 C         1.080387        -0.170000         0.739328
 C        -0.065791        -0.284753        -0.157501
 O         0.879880        -1.033829         1.796443
 H         3.591639         0.942023         3.660775
 H         4.975802         1.381331         2.741161
 H         3.519462         2.528134         3.001436
 H         2.819924        -0.954097        -0.818592
 H         3.319876         1.954873        -0.282035
 H         1.000610         2.011566         1.615289
 H        -0.925283        -0.377368         0.413975
 H        -0.236031         0.549923        -0.840472
 H         0.246462        -1.197262        -0.766569
 H         1.672230        -0.890703         2.268123
