19
Iteration:  3208
 C         4.001086         1.816902         2.499415
 C         3.009522         0.898952         1.759212
 O         3.399428        -0.484772         1.519530
 C         2.560141        -0.302977         0.294720
 C         2.633133         1.253253         0.334145
 C         1.556394         1.080972         1.486936
 C         1.102214        -0.335598         0.823932
 C         0.099618         0.048250        -0.230473
 O         0.631019        -1.454733         1.550820
 H         4.074593         1.556953         3.640434
 H         4.969012         1.641204         1.984108
 H         3.706445         2.859602         2.415163
 H         3.037255        -0.881495        -0.495113
 H         2.924903         2.019550        -0.508822
 H         0.853244         1.776156         1.849207
 H         0.405080         0.685735        -1.076826
 H        -0.084742        -0.938750        -0.762418
 H        -0.936152         0.316830         0.191186
 H         1.424960        -1.794439         2.115969
