19
Iteration:  1613charge 0 multiplicity 1
 C         4.143605         1.723411         2.531212
 C         3.112389         0.919802         1.759300
 O         3.410761        -0.422582         1.504414
 C         2.510688        -0.340926         0.270009
 C         2.534465         1.260055         0.395644
 C         1.528844         1.079389         1.510241
 C         1.086137        -0.265302         0.783334
 C         0.007820        -0.001906        -0.269804
 O         0.654057        -1.428897         1.525493
 H         4.171906         1.509806         3.640306
 H         5.101435         1.360049         2.156605
 H         3.886798         2.831675         2.424030
 H         2.950778        -0.878934        -0.538086
 H         2.724198         2.005909        -0.378879
 H         0.837940         1.843364         1.884661
 H        -0.232752         0.964798        -0.611815
 H         0.338933        -0.592857        -1.233084
 H        -0.812734        -0.614502         0.180481
 H         1.317217        -1.569606         2.327025
