19
Iteration:    73
 C         4.102881         1.760170         2.547293
 C         3.187532         0.969886         1.628629
 O         3.458821        -0.465412         1.380644
 C         2.471978        -0.485049         0.354732
 C         2.612957         1.051041         0.237959
 C         1.611176         1.145174         1.445824
 C         1.042517        -0.253497         0.893478
 C         0.142354        -0.004375        -0.257170
 O         0.448643        -1.251035         1.754324
 H         4.016043         1.456531         3.659633
 H         5.117995         1.519209         2.271880
 H         3.853072         2.893261         2.473712
 H         2.675146        -1.326940        -0.414299
 H         2.669403         1.724842        -0.603269
 H         0.984335         2.125283         1.453016
 H         0.088890         1.063256        -0.507829
 H         0.333336        -0.601177        -1.193984
 H        -0.940493        -0.413768         0.131921
 H         1.035126        -1.446172         2.452238
