19
Iteration:   618charge 0 multiplicity 1
 C         3.652078         1.429755         2.869215
 C         3.142855         0.969275         1.624644
 O         3.425352        -0.490795         1.270150
 C         2.564583        -0.301372         0.065252
 C         2.667251         1.217434         0.154527
 C         1.727148         1.124011         1.282701
 C         1.071907        -0.153571         0.820450
 C        -0.093186        -0.186535        -0.157744
 O         0.833552        -1.107751         1.917931
 H         3.277571         0.947113         3.696842
 H         4.794739         1.304705         2.806946
 H         3.470536         2.539472         3.089270
 H         2.994448        -0.890540        -0.740866
 H         2.875943         2.030032        -0.559136
 H         1.302205         2.194594         1.646328
 H        -0.854799         0.423482         0.228981
 H         0.090953         0.076483        -1.128450
 H        -0.254124        -1.269930        -0.207340
 H         1.785131        -1.227421         2.331689
