19
Iteration:  2115
 C         3.826388         1.726144         2.660425
 C         3.101450         0.924700         1.694800
 O         3.452203        -0.517673         1.357615
 C         2.642351        -0.329565         0.148588
 C         2.637579         1.169587         0.337250
 C         1.530423         1.058935         1.403112
 C         1.169236        -0.301465         0.846388
 C         0.051913         0.017482        -0.285738
 O         0.663842        -1.301369         1.756289
 H         3.957257         1.144424         3.553204
 H         4.844211         2.036353         2.396729
 H         3.279638         2.588409         2.805922
 H         2.779978        -0.952628        -0.790057
 H         2.777811         1.985691        -0.268750
 H         0.808864         1.896765         1.804015
 H         0.369560         0.812505        -0.944882
 H        -0.315150        -0.870742        -0.806258
 H        -0.722712         0.440458         0.272507
 H         1.269394        -1.441066         2.582132
