19
Iteration:  3300charge 0 multiplicity 1
 C         3.729961         1.450201         2.883397
 C         3.106252         0.936833         1.648238
 O         3.348398        -0.437848         1.360126
 C         2.583761        -0.293563         0.112212
 C         2.720420         1.267103         0.211204
 C         1.621911         1.178192         1.282291
 C         1.079592        -0.200803         0.755087
 C        -0.077048        -0.307307        -0.233135
 O         0.918606        -1.099962         1.845225
 H         3.413371         0.768964         3.672787
 H         4.860891         1.449679         2.863092
 H         3.360088         2.491525         3.110284
 H         2.903990        -0.963373        -0.710275
 H         2.731006         2.139928        -0.429247
 H         0.995266         1.992436         1.637772
 H         0.090253         0.494647        -0.946977
 H        -0.057534        -1.128974        -0.923651
 H        -1.105738        -0.262642         0.332629
 H         1.778606        -1.003921         2.280756
