19
Iteration:   809
 C         3.913370         1.509873         2.763919
 C         3.069023         1.014906         1.641002
 O         3.413120        -0.429643         1.435736
 C         2.556776        -0.378907         0.174503
 C         2.696457         1.189388         0.240710
 C         1.554625         1.163851         1.304322
 C         1.080926        -0.182340         0.806362
 C        -0.080354        -0.167501        -0.234406
 O         0.784515        -1.181179         1.780340
 H         3.571137         0.827610         3.607034
 H         4.939859         1.465063         2.504942
 H         3.852126         2.551495         3.180281
 H         2.860704        -1.001190        -0.694489
 H         3.120821         1.840393        -0.507487
 H         0.931831         2.117204         1.582827
 H        -1.119164         0.215870         0.173137
 H         0.260958         0.384216        -1.166798
 H        -0.306145        -1.121448        -0.586551
 H         1.649678        -1.555413         2.181709
