19
Iteration:   885charge 0 multiplicity 1
 C         3.804903         1.602450         2.711400
 C         3.109730         0.856406         1.584550
 O         3.470028        -0.491390         1.348194
 C         2.565287        -0.360356         0.187013
 C         2.684674         1.208970         0.195351
 C         1.614331         1.134865         1.353462
 C         1.113941        -0.237994         0.852405
 C         0.023890        -0.096581        -0.208062
 O         0.664487        -1.137228         1.853169
 H         3.387732         1.125724         3.652530
 H         4.876527         1.494252         2.787069
 H         3.554340         2.699097         2.769522
 H         2.854273        -1.033768        -0.665588
 H         3.049059         2.013195        -0.393606
 H         1.072793         2.067659         1.805101
 H        -1.020163        -0.136664         0.308504
 H         0.134409         0.855380        -0.814231
 H        -0.058169        -0.936201        -0.819766
 H         1.412318        -1.647764         2.120461
