19
Iteration:  1293charge 0 multiplicity 1
 C         3.714860         1.464820         2.843831
 C         3.121882         0.820730         1.599688
 O         3.414036        -0.556397         1.230139
 C         2.538629        -0.263589         0.115737
 C         2.733135         1.290055         0.220379
 C         1.615735         1.175416         1.303099
 C         1.130453        -0.155946         0.749048
 C        -0.050772        -0.231704        -0.166933
 O         0.807781        -1.040490         1.962558
 H         3.088835         1.186529         3.713957
 H         4.829722         1.118641         2.889144
 H         3.639598         2.517849         2.833398
 H         2.875034        -0.775260        -0.873313
 H         2.930644         1.873759        -0.678936
 H         1.159999         2.033772         1.791912
 H        -0.894682         0.151606         0.360531
 H         0.078399         0.308729        -1.231713
 H        -0.091792        -1.391017        -0.441031
 H         1.606087        -0.932298         2.657884
