19
Iteration:  3060
 C         3.827409         1.492444         2.927555
 C         3.041154         0.956735         1.632234
 O         3.446084        -0.477702         1.370678
 C         2.538322        -0.305314         0.159741
 C         2.740822         1.253939         0.213106
 C         1.541884         1.129521         1.296201
 C         1.087071        -0.165579         0.746429
 C        -0.165868        -0.256793        -0.197582
 O         0.910733        -1.095210         1.752235
 H         3.922831         0.673557         3.584992
 H         4.842958         1.821926         2.592188
 H         3.338418         2.382804         3.392464
 H         2.899673        -1.052660        -0.599052
 H         3.085340         2.134454        -0.473992
 H         0.910008         1.930729         1.643423
 H         0.070644         0.138950        -1.267724
 H        -0.494977        -1.253324        -0.405239
 H        -1.024949         0.298686         0.253733
 H         1.830357        -1.424995         2.064172
