19
Iteration:  3283charge 0 multiplicity 1
 C         3.786780         1.480310         2.895559
 C         3.038241         0.956603         1.654063
 O         3.552446        -0.444286         1.279024
 C         2.567513        -0.291625         0.195908
 C         2.658880         1.241238         0.234690
 C         1.523171         1.164096         1.274291
 C         1.096678        -0.152487         0.782002
 C        -0.013282        -0.272067        -0.252441
 O         0.788264        -1.109888         1.825897
 H         3.531786         0.781478         3.733650
 H         4.799939         1.640891         2.594603
 H         3.407991         2.390220         3.289535
 H         2.725204        -0.956751        -0.641992
 H         3.160088         1.882664        -0.592058
 H         0.984464         1.917736         1.826461
 H        -0.044724         0.465248        -1.191839
 H        -0.093578        -1.387814        -0.463029
 H        -0.911850        -0.131333         0.201012
 H         1.514386        -1.501272         2.238111
