19
Iteration:  4920charge 0 multiplicity 1
 C         3.933484         1.850585         2.578460
 C         3.035811         0.930638         1.813081
 O         3.163883        -0.570085         1.646450
 C         2.648976        -0.448654         0.264745
 C         2.854287         1.101150         0.264533
 C         1.606392         1.124009         1.323334
 C         1.153242        -0.247760         0.741541
 C        -0.015154        -0.104652        -0.327218
 O         0.692482        -1.173114         1.635547
 H         3.880682         1.601326         3.624408
 H         4.956661         1.849627         2.249912
 H         3.504002         2.881514         2.520591
 H         3.099583        -1.217157        -0.347838
 H         3.128328         1.803198        -0.459436
 H         0.816591         1.814886         1.627349
 H         0.286847         0.638132        -1.170383
 H        -0.175950        -1.126945        -0.676638
 H        -0.897736         0.440643         0.160146
 H         1.501107        -1.527999         2.152173
