19
Iteration:  3381charge 0 multiplicity 1
 C         3.869056         1.732162         2.627852
 C         3.018265         0.930701         1.712844
 O         3.431136        -0.422706         1.401119
 C         2.595183        -0.281768         0.217904
 C         2.582380         1.253533         0.307292
 C         1.612215         1.054115         1.485287
 C         1.120115        -0.338380         0.827817
 C         0.146884        -0.076283        -0.206549
 O         0.662576        -1.373716         1.604013
 H         3.642354         1.560795         3.705317
 H         4.867857         1.463798         2.354702
 H         3.742868         2.776912         2.463099
 H         2.798143        -0.985897        -0.575749
 H         2.690137         2.076163        -0.306721
 H         0.964798         1.935402         1.702692
 H         0.525758         0.719697        -1.029204
 H        -0.154477        -1.154298        -0.462996
 H        -0.732888         0.408364         0.096178
 H         1.240423        -1.618273         2.386441
