19
Iteration:  2965
 C         4.080428         1.761297         2.551888
 C         3.079041         0.963159         1.740250
 O         3.388422        -0.407688         1.462793
 C         2.606700        -0.336194         0.305046
 C         2.534724         1.264994         0.351952
 C         1.563920         1.015938         1.521846
 C         1.151188        -0.296719         0.847823
 C         0.104774        -0.061857        -0.220948
 O         0.555985        -1.413060         1.493194
 H         3.885779         1.783985         3.647909
 H         5.113053         1.434254         2.277006
 H         4.005404         2.797636         2.033965
 H         2.908815        -1.016130        -0.535578
 H         2.589280         2.020805        -0.507395
 H         0.820635         1.689616         1.989018
 H         0.141440         1.040868        -0.726913
 H         0.001792        -0.824837        -1.058709
 H        -0.801790        -0.160938         0.340359
 H         1.185233        -1.631865         2.159781
