19
Iteration:  1824charge 0 multiplicity 1
 C         3.965336         1.787703         2.520995
 C         3.108989         0.951312         1.667417
 O         3.471749        -0.461642         1.444086
 C         2.527649        -0.454008         0.286804
 C         2.586987         1.169268         0.296665
 C         1.597930         1.016340         1.547045
 C         1.103000        -0.240700         0.916028
 C         0.125112         0.128825        -0.185921
 O         0.547781        -1.401512         1.539894
 H         3.644890         1.737473         3.591623
 H         5.111206         1.550237         2.405247
 H         3.779261         2.881297         2.398124
 H         2.858268        -1.125268        -0.503789
 H         2.463897         1.865081        -0.534291
 H         0.816976         1.638578         2.132997
 H         0.194952         1.251546        -0.573800
 H         0.550603        -0.408024        -1.090738
 H        -0.876294        -0.269120        -0.011513
 H         1.373844        -1.888723         1.943031
