19
Iteration:   465
 C         3.948381         1.677183         2.589912
 C         3.110582         0.906431         1.658915
 O         3.465006        -0.478823         1.448430
 C         2.517095        -0.404288         0.187374
 C         2.704957         1.247997         0.255737
 C         1.635218         1.122678         1.451638
 C         1.040677        -0.181930         0.883745
 C         0.002443        -0.069226        -0.273105
 O         0.607193        -1.330889         1.737854
 H         3.949358         1.330793         3.524017
 H         5.046707         1.849639         2.283213
 H         3.488795         2.736122         2.561494
 H         2.699118        -1.110847        -0.603353
 H         3.085266         2.024682        -0.384926
 H         0.949059         1.984485         1.995070
 H        -0.945331        -0.502332         0.046251
 H        -0.048109         0.936948        -0.569536
 H         0.196614        -0.787174        -1.156273
 H         1.323188        -1.363808         2.362761
