19
Iteration:  2911
 C         3.820183         1.649390         2.712842
 C         3.053813         0.907849         1.691075
 O         3.358517        -0.543870         1.362871
 C         2.558140        -0.325187         0.100107
 C         2.635500         1.258398         0.327053
 C         1.580751         1.130740         1.346301
 C         1.120239        -0.235567         0.846996
 C         0.074005        -0.136099        -0.201516
 O         0.805469        -1.232739         1.761904
 H         3.811421         1.103520         3.673125
 H         4.870008         1.834334         2.431187
 H         3.498097         2.720104         2.920893
 H         2.817656        -0.864583        -0.862287
 H         2.893405         2.249107        -0.160103
 H         1.081348         1.989038         1.711816
 H         0.242274         0.670434        -1.007456
 H        -0.339334        -1.129783        -0.501571
 H        -0.795839         0.320170         0.195032
 H         1.599544        -1.731589         1.816507
