19
Iteration:  2068
 C         4.049766         1.780247         2.453882
 C         3.112244         0.998524         1.698272
 O         3.534602        -0.462301         1.455798
 C         2.558098        -0.325266         0.373530
 C         2.515229         1.220110         0.422245
 C         1.524855         0.991656         1.667227
 C         1.069506        -0.284416         0.813563
 C         0.109356        -0.058169        -0.314337
 O         0.506736        -1.368552         1.498273
 H         4.350224         1.205847         3.403803
 H         5.011826         1.936475         2.008638
 H         3.692050         2.807552         2.670127
 H         2.955257        -0.927669        -0.485941
 H         2.605399         2.083149        -0.339183
 H         0.948950         1.885375         1.853958
 H         0.572128         0.553657        -1.041987
 H        -0.060717        -1.115146        -0.644808
 H        -0.866837         0.553367         0.026250
 H         1.268147        -1.832612         2.002112
