19
Iteration:  4140
 C         3.686278         1.656846         2.864191
 C         3.037874         0.973179         1.648002
 O         3.401210        -0.438158         1.382024
 C         2.580999        -0.315371         0.179972
 C         2.744937         1.251968         0.163472
 C         1.581869         1.115428         1.320370
 C         1.138430        -0.259478         0.745941
 C         0.011804        -0.151848        -0.174243
 O         0.838232        -1.335931         1.759747
 H         4.120852         0.825317         3.475507
 H         4.503922         2.215508         2.488595
 H         3.110602         2.388273         3.417231
 H         2.958695        -0.964425        -0.591737
 H         2.878815         2.048141        -0.561865
 H         1.054222         1.973798         1.677774
 H         0.033457         0.820278        -0.831081
 H        -0.196573        -0.847147        -0.982411
 H        -0.912420        -0.146123         0.382056
 H         1.649473        -1.445483         2.368821
