19
Iteration:  3500charge 0 multiplicity 1
 C         3.646676         1.554582         2.815370
 C         3.009661         0.920240         1.607810
 O         3.392965        -0.492335         1.380091
 C         2.541011        -0.278110         0.080374
 C         2.683394         1.203869         0.244510
 C         1.606453         1.209567         1.272878
 C         1.198785        -0.216531         0.774003
 C         0.018932        -0.170951        -0.122425
 O         0.911188        -1.199090         1.803391
 H         3.504902         0.825342         3.738591
 H         4.763305         1.675217         2.679359
 H         3.176209         2.538235         2.999689
 H         2.723364        -1.040599        -0.667357
 H         3.087204         1.906348        -0.385669
 H         0.920636         1.978608         1.698471
 H        -0.018708         0.883219        -0.685730
 H         0.072687        -1.057998        -0.833468
 H        -0.893581        -0.175722         0.351235
 H         1.758701        -1.403994         2.181588
