19
Iteration:   531charge 0 multiplicity 1
 C         4.039196         1.756191         2.524986
 C         3.055162         0.896441         1.740633
 O         3.467726        -0.573881         1.414973
 C         2.526075        -0.378684         0.288628
 C         2.644806         1.189121         0.354735
 C         1.561999         1.168452         1.493454
 C         1.052146        -0.226605         0.862115
 C         0.066761        -0.049975        -0.265640
 O         0.604856        -1.324949         1.629776
 H         4.008327         1.667277         3.556469
 H         5.051065         1.822465         1.995304
 H         3.568055         2.801283         2.294885
 H         2.733427        -1.014247        -0.560589
 H         2.902861         1.957295        -0.380177
 H         0.944744         2.157612         1.882740
 H        -0.961047        -0.285130         0.111700
 H         0.124243         0.954021        -0.654090
 H         0.202875        -0.815320        -1.142561
 H         1.321445        -1.400589         2.285882
