19
Iteration:  4356charge 0 multiplicity 1
 C         3.862075         1.656146         2.775941
 C         2.999409         1.048301         1.695475
 O         3.366227        -0.390283         1.425000
 C         2.545895        -0.353722         0.167601
 C         2.626262         1.225460         0.258735
 C         1.523932         1.105734         1.389438
 C         1.081227        -0.300328         0.800780
 C         0.086243        -0.178690        -0.283768
 O         0.856150        -1.331201         1.739377
 H         3.241242         1.773297         3.725042
 H         4.671528         0.963965         2.784326
 H         4.200926         2.627086         2.328592
 H         2.976381        -1.022034        -0.584870
 H         2.826151         2.006597        -0.527956
 H         0.873046         1.958259         1.530561
 H         0.505651         0.657030        -0.856733
 H        -0.009750        -1.000052        -0.929202
 H        -0.840959         0.252967         0.096679
 H         1.708682        -1.375826         2.244372
