19
Iteration:   569
 C         3.928123         1.584723         2.656113
 C         3.029111         0.911825         1.732908
 O         3.313220        -0.509393         1.439369
 C         2.554041        -0.285268         0.168648
 C         2.775174         1.191345         0.200662
 C         1.553684         1.208129         1.391380
 C         1.095486        -0.244517         0.750744
 C        -0.099079        -0.140348        -0.186857
 O         0.841760        -1.230667         1.750584
 H         3.774730         1.266806         3.780660
 H         4.965776         1.527418         2.467424
 H         3.628277         2.591361         2.662434
 H         2.911800        -1.039650        -0.576427
 H         2.771046         2.051410        -0.444082
 H         1.089105         1.999900         1.748937
 H        -0.911325         0.461952         0.275386
 H         0.226936         0.476642        -1.119628
 H        -0.228797        -1.077798        -0.639627
 H         1.666565        -1.395797         2.329411
