19
Iteration:  3767
 C         3.813682         1.471716         2.931641
 C         3.079706         0.976609         1.640627
 O         3.418087        -0.428051         1.291467
 C         2.599392        -0.285780         0.111039
 C         2.659871         1.253594         0.257023
 C         1.566390         1.152088         1.279917
 C         1.068412        -0.194340         0.793812
 C        -0.020540        -0.365845        -0.291847
 O         0.830395        -1.095511         1.901046
 H         3.577275         0.829934         3.748594
 H         4.891295         1.636187         2.693453
 H         3.468109         2.492576         3.038688
 H         2.767277        -0.861506        -0.820556
 H         2.729676         2.065847        -0.527471
 H         1.078768         2.069370         1.682510
 H         0.240831         0.260456        -1.042432
 H        -0.216080        -1.230856        -0.828012
 H        -1.046948        -0.012784         0.044099
 H         1.749393        -1.227654         2.352355
