19
Iteration:  3088
 C         3.759117         1.417715         2.888360
 C         3.054556         0.915518         1.583146
 O         3.311899        -0.488435         1.357008
 C         2.528996        -0.242740         0.088872
 C         2.772931         1.366555         0.243301
 C         1.596161         1.229824         1.175870
 C         1.115130        -0.144351         0.810217
 C        -0.023902        -0.328166        -0.119481
 O         0.890452        -1.142268         1.792188
 H         3.762519         0.493569         3.573640
 H         4.798251         1.594590         2.633340
 H         3.264424         2.249248         3.328818
 H         3.055015        -0.880228        -0.578703
 H         2.880964         2.163841        -0.470212
 H         1.143006         1.955927         1.804986
 H         0.242826        -0.050766        -1.063495
 H        -0.351009        -1.357346        -0.335093
 H        -0.908814         0.277699         0.259899
 H         1.654791        -1.182701         2.494396
