19
Iteration:  1355
 C         3.996264         1.715420         2.608070
 C         3.095850         0.908360         1.672233
 O         3.263258        -0.537051         1.492708
 C         2.500448        -0.377630         0.200707
 C         2.703555         1.214976         0.316202
 C         1.593554         1.106525         1.398094
 C         1.060955        -0.225857         0.784384
 C         0.008086        -0.033725        -0.200817
 O         0.770927        -1.286027         1.656014
 H         4.271409         1.069012         3.442200
 H         4.992921         1.886781         2.109477
 H         3.608692         2.671493         3.011829
 H         2.872566        -1.189607        -0.476364
 H         2.836006         1.969561        -0.494475
 H         1.061482         2.065358         1.940588
 H        -0.858541         0.737203        -0.009371
 H         0.334541         0.285006        -1.148246
 H        -0.338569        -1.040935        -0.328755
 H         1.575234        -1.253103         2.314271
