19
Iteration:  1236charge 0 multiplicity 1
 C         3.966547         1.559886         2.732584
 C         3.055571         0.951339         1.632126
 O         3.322405        -0.487814         1.491358
 C         2.573703        -0.355343         0.193593
 C         2.696149         1.250680         0.197815
 C         1.570631         1.138639         1.307137
 C         1.067748        -0.218342         0.780392
 C        -0.080800        -0.128257        -0.172536
 O         0.801812        -1.208896         1.731764
 H         3.680309         1.116488         3.690948
 H         5.039415         1.261037         2.595782
 H         3.886976         2.662352         2.719077
 H         2.911739        -1.048377        -0.578361
 H         3.015359         2.030145        -0.530101
 H         1.017395         2.146162         1.621686
 H        -1.115134        -0.238883         0.302156
 H         0.033076         0.860236        -0.654209
 H         0.029999        -0.970369        -0.906778
 H         1.728283        -1.319520         2.204078
