19
Iteration:  1329
 C         3.883258         1.469227         2.750896
 C         3.064057         0.975749         1.637964
 O         3.435888        -0.476425         1.379471
 C         2.544031        -0.317285         0.234085
 C         2.700747         1.238351         0.186092
 C         1.571972         1.208432         1.290224
 C         1.079720        -0.217884         0.817492
 C        -0.037532        -0.102686        -0.201768
 O         0.756013        -1.222618         1.826644
 H         3.814228         0.779738         3.619493
 H         4.926511         1.510099         2.506657
 H         3.616493         2.540871         3.062228
 H         2.776061        -1.066487        -0.506277
 H         2.932151         1.840820        -0.692725
 H         1.029219         2.098426         1.544563
 H        -0.876397         0.625026         0.086157
 H         0.274272         0.135195        -1.315524
 H        -0.590860        -1.142129        -0.183875
 H         1.767294        -1.444223         2.090743
