19
Iteration:    67charge 0 multiplicity 1
 C         4.110039         1.777080         2.519987
 C         3.153965         0.978994         1.724556
 O         3.431325        -0.475083         1.403755
 C         2.479737        -0.480143         0.351561
 C         2.620670         1.020690         0.210878
 C         1.626319         1.152085         1.430818
 C         1.114526        -0.229327         0.906729
 C         0.081770        -0.014470        -0.278292
 O         0.450452        -1.249576         1.741197
 H         4.029744         1.411322         3.519746
 H         5.150158         1.548014         2.189541
 H         4.029821         2.822666         2.447509
 H         2.578522        -1.140028        -0.442940
 H         2.576048         1.711812        -0.636654
 H         1.053898         1.992304         1.534377
 H        -0.141758         1.027065        -0.527497
 H         0.433150        -0.516666        -1.159436
 H        -0.804322        -0.375965         0.017345
 H         1.149064        -1.612757         2.437968
