19
Iteration:  1784charge 0 multiplicity 1
 C         3.938398         1.654199         2.676368
 C         3.087846         0.856823         1.736868
 O         3.396045        -0.533400         1.398585
 C         2.603650        -0.291159         0.187564
 C         2.713068         1.225500         0.341783
 C         1.527057         1.025401         1.406379
 C         1.078619        -0.188684         0.773030
 C        -0.054709        -0.084327        -0.241882
 O         0.739151        -1.204779         1.664773
 H         3.772352         1.411358         3.689494
 H         4.933644         1.673807         2.348935
 H         3.706986         2.763124         2.532805
 H         2.749904        -0.961937        -0.620611
 H         2.903867         2.127644        -0.325406
 H         1.122137         1.872859         2.119207
 H        -0.274158         0.829888        -0.767533
 H         0.121660        -0.828312        -1.006454
 H        -0.951382        -0.532419         0.241194
 H         1.439288        -1.188363         2.298177
