19
Iteration:  1379
 C         4.009784         1.812923         2.453971
 C         3.070744         0.822099         1.756436
 O         3.380959        -0.539900         1.488661
 C         2.547716        -0.385761         0.267783
 C         2.635629         1.149616         0.383237
 C         1.592616         1.124409         1.484008
 C         1.104113        -0.261704         0.815191
 C         0.000291        -0.010264        -0.281926
 O         0.646205        -1.274477         1.635388
 H         4.396219         1.463290         3.427448
 H         4.988380         2.012080         1.843198
 H         3.503004         2.701135         2.668686
 H         2.947042        -0.998100        -0.637259
 H         3.165396         1.884828        -0.165472
 H         1.005951         1.904033         1.971513
 H        -0.826115         0.554563         0.189344
 H         0.223538         0.816742        -0.922450
 H        -0.274132        -0.859199        -0.854720
 H         1.311901        -1.740474         2.042954
