19
Iteration:  1427charge 0 multiplicity 1
 C         4.023722         1.675456         2.618809
 C         3.179695         1.005573         1.549683
 O         3.467676        -0.473579         1.422272
 C         2.509255        -0.407237         0.317097
 C         2.509235         1.186434         0.252664
 C         1.669334         1.048742         1.498956
 C         1.071804        -0.255491         0.832350
 C         0.119754        -0.044735        -0.223416
 O         0.513357        -1.306746         1.667791
 H         3.603307         1.590870         3.642842
 H         5.046701         1.432491         2.674909
 H         3.872594         2.818064         2.466700
 H         2.591061        -1.096485        -0.474073
 H         2.694321         1.920420        -0.594631
 H         1.083277         1.874789         1.977835
 H        -0.838177        -0.237823        -0.010194
 H        -0.122726         1.044191        -0.438180
 H         0.596951        -0.555344        -1.114166
 H         1.193490        -1.085452         2.359619
