19
Iteration:  3177
 C         4.023807         1.823541         2.582038
 C         3.118404         0.945350         1.740388
 O         3.397251        -0.463367         1.506309
 C         2.532133        -0.403716         0.315912
 C         2.625503         1.229009         0.328766
 C         1.564184         1.039259         1.471633
 C         1.104637        -0.264956         0.801138
 C        -0.017245         0.021361        -0.242114
 O         0.682280        -1.407485         1.503991
 H         3.839982         1.677851         3.687809
 H         5.104944         1.593622         2.495863
 H         3.874956         2.866411         2.281958
 H         2.974441        -1.134980        -0.370253
 H         2.584677         2.072811        -0.470015
 H         0.870757         1.833375         1.684189
 H         0.002943         0.839528        -0.885383
 H         0.047502        -0.895885        -0.842585
 H        -1.024285        -0.140330         0.390323
 H         1.446876        -1.727789         1.978191
