19
Iteration:  3550
 C         3.780404         1.568254         2.895683
 C         3.012714         0.956891         1.652044
 O         3.349964        -0.472827         1.303351
 C         2.611602        -0.186564         0.111913
 C         2.718827         1.296426         0.233046
 C         1.585075         1.140029         1.272379
 C         1.150596        -0.249226         0.773150
 C        -0.007117        -0.307831        -0.142240
 O         0.818308        -1.184686         1.775658
 H         3.249943         1.501401         3.799141
 H         4.674770         0.987801         3.186715
 H         4.107910         2.554836         2.621558
 H         3.055249        -0.751364        -0.695431
 H         2.918646         2.069613        -0.517632
 H         0.988164         1.957226         1.732213
 H         0.054130         0.194284        -1.067090
 H        -0.267502        -1.343901        -0.269275
 H        -0.886965         0.222876         0.400062
 H         1.603352        -1.746560         2.073652
