19
Iteration:    11charge 0 multiplicity 1
 C         4.023379         1.706702         2.573284
 C         3.040130         0.850479         1.688784
 O         3.287885        -0.584448         1.498026
 C         2.501805        -0.448866         0.262885
 C         2.739314         1.112302         0.169492
 C         1.663019         1.165695         1.272341
 C         1.026861        -0.152189         0.822053
 C        -0.039578        -0.086917        -0.167618
 O         0.705844        -1.125682         1.807345
 H         4.216877         1.489257         3.658210
 H         4.860321         1.391671         2.018458
 H         3.954556         2.822004         2.434962
 H         2.853386        -1.157926        -0.512011
 H         3.001852         1.815618        -0.603983
 H         1.323265         2.104848         1.756426
 H        -0.842030         0.558091         0.062295
 H         0.465212         0.357648        -0.982704
 H        -0.258733        -1.142547        -0.500460
 H         1.468253        -0.913928         2.422009
