19
Iteration:  1290
 C         3.707941         1.480114         2.836710
 C         3.122724         0.807468         1.604055
 O         3.415706        -0.566073         1.222830
 C         2.541890        -0.269082         0.100928
 C         2.748284         1.271128         0.255887
 C         1.622437         1.187125         1.267613
 C         1.110218        -0.131679         0.759507
 C        -0.052508        -0.248542        -0.183377
 O         0.823769        -1.047502         1.971617
 H         3.095381         1.186449         3.682116
 H         4.738603         1.080665         2.881417
 H         3.643844         2.570494         2.820176
 H         2.832131        -0.697023        -0.863881
 H         2.914353         1.910386        -0.649435
 H         1.123331         2.094058         1.890305
 H        -0.935055         0.136919         0.336251
 H         0.031698         0.304727        -1.047415
 H         0.009478        -1.239078        -0.429704
 H         1.522792        -0.951661         2.654570
