19
Iteration:   156
 C         3.907543         1.506930         2.685477
 C         3.075582         0.923104         1.658248
 O         3.223613        -0.456771         1.530191
 C         2.511257        -0.378858         0.159486
 C         2.770292         1.122527         0.179727
 C         1.650150         1.220793         1.277057
 C         1.082016        -0.158953         0.801724
 C        -0.160964        -0.175420        -0.135286
 O         0.909210        -1.106955         1.749446
 H         3.629143         0.917004         3.504401
 H         5.032441         1.555809         2.437730
 H         3.774334         2.545282         2.886975
 H         2.917455        -1.127918        -0.550189
 H         3.218195         1.893611        -0.451758
 H         1.034048         2.188778         1.453265
 H         0.227962        -0.492491        -1.128809
 H        -0.772764        -1.059988         0.143283
 H        -0.618696         0.700137        -0.334193
 H         1.811618        -1.081696         2.138857
