19
Iteration:  1513charge 0 multiplicity 1
 C         3.827129         1.548619         2.833107
 C         3.097915         1.002488         1.671530
 O         3.350725        -0.571930         1.365721
 C         2.540744        -0.350287         0.163066
 C         2.801750         1.228051         0.236254
 C         1.618051         1.274079         1.161795
 C         1.104523        -0.143597         0.769045
 C        -0.117447        -0.182851        -0.098729
 O         0.809203        -1.192057         1.776563
 H         3.625557         0.826633         3.686873
 H         4.900378         1.405205         2.622923
 H         3.500293         2.633226         3.177627
 H         2.594815        -1.045322        -0.676589
 H         3.143591         1.831616        -0.638243
 H         1.039094         2.095324         1.742115
 H        -1.004626        -0.298779         0.490750
 H        -0.184446         0.747979        -0.855764
 H         0.016332        -1.195610        -0.651576
 H         1.754135        -1.552945         2.075293
