19
Iteration:   633charge 0 multiplicity 1
 C         3.719569         1.507915         2.871141
 C         3.145818         0.828385         1.576533
 O         3.438577        -0.531814         1.223911
 C         2.538975        -0.304181         0.107043
 C         2.744405         1.291671         0.214803
 C         1.580936         1.183906         1.262048
 C         1.118297        -0.187753         0.831730
 C        -0.066321        -0.247608        -0.124171
 O         0.839069        -1.038477         1.881986
 H         3.271024         0.919717         3.773027
 H         4.795875         1.504066         3.109053
 H         3.297927         2.472139         2.899941
 H         2.594875        -1.005977        -0.794112
 H         3.106589         2.031549        -0.493051
 H         1.035874         1.796693         1.854786
 H        -1.056350         0.303930         0.264094
 H         0.245748         0.363126        -1.120013
 H        -0.345200        -1.243372        -0.421526
 H         1.654370        -1.144675         2.442330
