19
Iteration:  1218charge 0 multiplicity 1
 C         4.003636         1.628360         2.631261
 C         3.049564         0.958609         1.696610
 O         3.346195        -0.412483         1.454405
 C         2.523102        -0.368519         0.284704
 C         2.691156         1.155472         0.292283
 C         1.586690         1.207312         1.323110
 C         1.113306        -0.271980         0.816690
 C        -0.018153        -0.027348        -0.259349
 O         0.743096        -1.362066         1.681316
 H         3.959026         1.136458         3.632826
 H         5.004030         1.479275         2.114021
 H         3.713871         2.644518         2.724418
 H         2.705840        -1.233904        -0.458117
 H         3.003764         1.926985        -0.452746
 H         0.909862         1.919751         1.735706
 H        -0.815689         0.181292         0.399797
 H        -0.045029         0.995296        -0.843015
 H        -0.163901        -0.976878        -0.919635
 H         1.321362        -1.330593         2.557576
