19
Iteration:   277charge 0 multiplicity 1
 C         4.130797         1.706145         2.562827
 C         3.058975         0.993789         1.738830
 O         3.370825        -0.440353         1.544192
 C         2.546874        -0.387527         0.262064
 C         2.552264         1.132603         0.247428
 C         1.533650         1.074705         1.403875
 C         1.091745        -0.257256         0.798186
 C         0.039317         0.014834        -0.177998
 O         0.659729        -1.355480         1.577306
 H         4.280380         1.195739         3.509464
 H         5.183689         1.907833         1.988273
 H         3.873915         2.786756         2.730201
 H         2.989313        -1.140807        -0.482378
 H         2.685469         1.949594        -0.445442
 H         0.878784         1.940455         1.678454
 H        -0.842486        -0.551872         0.212650
 H        -0.387165         1.071545        -0.212835
 H         0.331880        -0.481355        -1.070415
 H         1.480241        -1.542862         2.213987
