19
Iteration:  3201charge 0 multiplicity 1
 C         4.011561         1.820090         2.498501
 C         3.025210         0.977140         1.766525
 O         3.356903        -0.488285         1.560561
 C         2.573606        -0.296083         0.240636
 C         2.609998         1.235915         0.313879
 C         1.585118         1.050906         1.521006
 C         1.118788        -0.359947         0.808663
 C         0.077718         0.000665        -0.237766
 O         0.624738        -1.430240         1.536715
 H         4.078549         1.561857         3.524120
 H         5.060465         1.666795         2.177016
 H         3.766421         2.905316         2.333551
 H         3.093182        -0.873608        -0.557645
 H         2.983329         1.893545        -0.430388
 H         0.950185         1.858292         2.037102
 H         0.444286         0.711548        -0.915803
 H        -0.147431        -0.826170        -0.879707
 H        -0.893509         0.317190         0.399141
 H         1.338490        -1.936226         1.910653
