19
Iteration:  3291
 C         3.773725         1.470388         2.892615
 C         3.049023         0.936796         1.662000
 O         3.482171        -0.438411         1.313051
 C         2.582232        -0.297703         0.135577
 C         2.737474         1.235924         0.211720
 C         1.498423         1.182146         1.290714
 C         1.090730        -0.187338         0.802425
 C        -0.057911        -0.264985        -0.269729
 O         0.846130        -1.100176         1.839267
 H         3.564781         0.735570         3.670942
 H         4.864386         1.493795         2.937011
 H         3.343203         2.421700         3.189830
 H         2.852175        -0.994377        -0.665692
 H         2.777164         1.987868        -0.654782
 H         1.044612         1.992504         1.770186
 H        -0.153932         0.507784        -1.186332
 H         0.086610        -1.346809        -0.572997
 H        -1.040036        -0.197596         0.281986
 H         1.744415        -1.140953         2.172017
