19
Iteration:  4529
 C         4.070038         1.850099         2.635586
 C         3.068061         0.912369         1.804267
 O         3.384139        -0.448375         1.593623
 C         2.563168        -0.301735         0.230105
 C         2.667577         1.208854         0.313745
 C         1.500430         1.059733         1.452602
 C         1.077076        -0.224074         0.785806
 C         0.007589        -0.199412        -0.420306
 O         0.682950        -1.370673         1.600929
 H         4.975258         1.319357         2.670220
 H         4.222991         2.661126         1.994051
 H         3.618323         2.067141         3.582948
 H         3.035735        -0.801593        -0.632211
 H         2.900238         1.947166        -0.422885
 H         0.733355         1.876522         1.709306
 H         0.287007         0.571174        -1.215622
 H        -0.175230        -1.187065        -0.808702
 H        -0.981565         0.120416         0.084089
 H         1.274176        -1.410829         2.399221
