19
Iteration:  2032
 C         4.057931         1.671259         2.572514
 C         3.035942         1.016600         1.721468
 O         3.358083        -0.456725         1.450210
 C         2.573130        -0.283775         0.242033
 C         2.605194         1.245583         0.366456
 C         1.509329         1.069270         1.510306
 C         1.077994        -0.305746         0.787227
 C         0.068482        -0.018203        -0.255303
 O         0.715281        -1.446591         1.624668
 H         4.010310         1.362766         3.609593
 H         4.970968         1.378233         1.983022
 H         3.887518         2.816418         2.557364
 H         2.778772        -0.922316        -0.555932
 H         2.751411         2.018817        -0.324354
 H         0.945126         1.954612         1.673765
 H         0.462061         0.850845        -0.944857
 H        -0.008618        -0.847343        -0.978352
 H        -1.000723         0.103587         0.112450
 H         1.302960        -1.276970         2.424573
