19
Iteration:   364charge 0 multiplicity 1
 C         3.761553         1.502611         2.824480
 C         3.136604         0.848160         1.569907
 O         3.508681        -0.480567         1.274204
 C         2.567240        -0.286877         0.129475
 C         2.686513         1.250155         0.228716
 C         1.538997         1.173882         1.360649
 C         1.092021        -0.224949         0.837585
 C        -0.065983        -0.173611        -0.167553
 O         0.794505        -1.135601         1.852064
 H         3.331600         1.214654         3.681976
 H         4.826995         1.406904         2.708882
 H         3.622162         2.563623         2.775570
 H         2.757078        -0.951096        -0.770652
 H         2.763239         2.014726        -0.572453
 H         1.044918         1.841572         1.938948
 H        -0.609457         0.770106        -0.068364
 H         0.337828        -0.130298        -1.228249
 H        -0.658365        -1.084332        -0.174665
 H         1.550704        -1.123424         2.374302
