19
Iteration:  4156charge 0 multiplicity 1
 C         3.645301         1.534253         2.833901
 C         3.060013         0.987946         1.617281
 O         3.452345        -0.404395         1.395261
 C         2.629287        -0.363620         0.183533
 C         2.629382         1.213283         0.228041
 C         1.553288         1.140939         1.235532
 C         1.186405        -0.232959         0.796406
 C        -0.040041        -0.118160        -0.186306
 O         0.928425        -1.188572         1.753923
 H         3.632249         0.630477         3.500200
 H         4.721850         2.006185         2.859069
 H         2.754591         2.111725         3.196469
 H         2.764565        -1.139611        -0.616068
 H         2.949955         1.939001        -0.545091
 H         0.792570         1.841264         1.756367
 H        -0.056931         0.735589        -0.807284
 H         0.015776        -1.140355        -0.648575
 H        -1.003659        -0.226842         0.428169
 H         1.799455        -1.464945         2.070460
