19
Iteration:  4346
 C         3.843094         1.723198         2.705623
 C         3.027284         0.958480         1.679925
 O         3.420414        -0.439935         1.457024
 C         2.631775        -0.350356         0.245648
 C         2.543221         1.171657         0.200027
 C         1.513090         1.105424         1.433291
 C         1.143759        -0.314729         0.791426
 C         0.029011        -0.060058        -0.280993
 O         0.826317        -1.333996         1.675920
 H         3.232872         1.900310         3.680776
 H         4.681341         1.174687         3.096359
 H         4.266816         2.724071         2.436921
 H         3.016564        -1.016889        -0.530531
 H         2.594956         2.069450        -0.460977
 H         0.868370         1.910507         1.827959
 H         0.409271         0.764772        -0.960732
 H         0.052514        -0.965894        -0.830494
 H        -0.965491        -0.036147         0.082182
 H         1.535348        -1.217058         2.316910
