19
Iteration:  3187
 C         4.050889         1.849648         2.562161
 C         3.137890         0.957068         1.670827
 O         3.312798        -0.430119         1.555368
 C         2.607489        -0.380995         0.275545
 C         2.599781         1.163706         0.390348
 C         1.573559         1.038124         1.509921
 C         1.142210        -0.283556         0.762420
 C         0.030699        -0.038813        -0.232792
 O         0.646081        -1.399138         1.507181
 H         3.781989         1.698507         3.693343
 H         5.081508         1.583708         2.239731
 H         3.852880         2.906720         2.363117
 H         2.799265        -1.066771        -0.549683
 H         2.626857         2.148727        -0.277522
 H         0.905486         1.761762         1.905262
 H         0.115437         0.896114        -0.812915
 H        -0.229734        -0.847502        -0.964355
 H        -1.029083         0.174080         0.434166
 H         1.456251        -1.922104         1.796572
