19
Iteration:  1903
 C         3.875718         1.521393         2.734900
 C         3.062590         0.878717         1.662016
 O         3.362956        -0.540547         1.421965
 C         2.527592        -0.263536         0.177701
 C         2.625916         1.290290         0.262272
 C         1.554808         1.093667         1.412479
 C         1.106385        -0.134887         0.817625
 C        -0.021021        -0.185142        -0.262409
 O         0.869298        -1.151856         1.703718
 H         3.999161         0.951368         3.657403
 H         4.875013         1.787803         2.322837
 H         3.540067         2.615214         2.919834
 H         2.696182        -0.960508        -0.603923
 H         3.056768         2.043054        -0.374798
 H         0.997886         1.883755         1.967323
 H         0.253188         0.275413        -1.239708
 H        -0.230595        -1.204878        -0.469990
 H        -1.053514         0.270081         0.051001
 H         1.779239        -1.253016         2.190496
