19
Iteration:  3599
 C         4.010370         1.771567         2.710221
 C         3.016031         0.935678         1.680353
 O         3.342787        -0.472071         1.404624
 C         2.554958        -0.330633         0.140658
 C         2.539474         1.315800         0.331180
 C         1.552200         1.061594         1.436876
 C         1.104983        -0.281277         0.821778
 C         0.123595        -0.110894        -0.309302
 O         0.742990        -1.385018         1.744933
 H         3.498209         1.902124         3.759486
 H         4.874289         1.176058         3.072325
 H         4.353543         2.700974         2.132529
 H         2.866993        -0.959251        -0.762121
 H         2.626649         2.154181        -0.459158
 H         0.842982         1.714976         1.852388
 H         0.494817         0.695319        -1.065046
 H         0.072113        -1.072358        -0.879216
 H        -0.870510         0.201755        -0.095371
 H         1.458124        -1.413858         2.400149
