19
Iteration:  4493
 C         3.848421         1.787253         2.612397
 C         2.984978         0.911459         1.730087
 O         3.351284        -0.476653         1.545477
 C         2.562960        -0.313443         0.218351
 C         2.772291         1.211081         0.289227
 C         1.539666         1.131260         1.396635
 C         1.159246        -0.244509         0.829068
 C         0.019583        -0.102101        -0.286702
 O         0.736829        -1.394993         1.622161
 H         4.683740         1.288374         3.036237
 H         4.239523         2.564087         1.878322
 H         3.486579         2.481379         3.404693
 H         2.925473        -1.090066        -0.451794
 H         3.350474         1.957530        -0.337814
 H         0.931504         1.897407         1.812872
 H         0.113862         0.733770        -0.906022
 H         0.112523        -1.043682        -0.945036
 H        -1.005562        -0.021352         0.252432
 H         1.514388        -1.664814         2.195576
