19
Iteration:  2072
 C         4.020552         1.801298         2.441665
 C         3.103146         0.962320         1.707926
 O         3.539890        -0.462568         1.431158
 C         2.546741        -0.328193         0.383326
 C         2.538853         1.191316         0.396801
 C         1.561545         0.997068         1.704791
 C         1.094854        -0.247230         0.860893
 C         0.097602        -0.055614        -0.344746
 O         0.512304        -1.366574         1.499157
 H         4.202663         1.223271         3.325271
 H         5.035426         1.988386         2.048995
 H         3.608234         2.715504         2.764742
 H         2.970519        -0.861016        -0.525437
 H         2.562287         1.991376        -0.262703
 H         0.854826         1.939997         1.874367
 H         0.498305         0.580833        -1.150296
 H        -0.193242        -1.063247        -0.646406
 H        -0.738605         0.417726        -0.050236
 H         1.214871        -1.789506         2.019493
