19
Iteration:  1449
 C         3.941562         1.592209         2.648640
 C         3.086730         0.903284         1.671423
 O         3.452829        -0.415269         1.334606
 C         2.530759        -0.380186         0.180928
 C         2.657497         1.157114         0.320692
 C         1.600423         1.180615         1.372823
 C         1.124546        -0.250768         0.891793
 C         0.010052        -0.091319        -0.294900
 O         0.607917        -1.224631         1.808552
 H         3.640193         1.598935         3.725722
 H         4.882127         1.107336         2.682983
 H         4.030814         2.740106         2.479210
 H         2.759434        -1.137748        -0.512336
 H         2.893427         1.880473        -0.506282
 H         1.093776         2.104600         1.837199
 H        -0.888528        -0.507539        -0.032083
 H        -0.394203         0.964926        -0.461332
 H         0.522206        -0.583313        -1.179873
 H         1.479983        -1.525768         2.266995
