19
Iteration:   902
 C         3.872839         1.660128         2.737100
 C         3.128071         1.023001         1.663287
 O         3.415980        -0.503520         1.342983
 C         2.521476        -0.413624         0.218116
 C         2.634655         1.141138         0.207393
 C         1.627738         1.075434         1.387001
 C         1.123271        -0.268335         0.834555
 C         0.085535         0.008283        -0.169607
 O         0.655595        -1.235505         1.739683
 H         3.496380         1.300743         3.678063
 H         4.951956         1.581166         2.433663
 H         3.787513         2.723464         2.699885
 H         2.678168        -1.146597        -0.619442
 H         2.558318         1.763745        -0.706730
 H         0.951445         1.780015         1.792427
 H        -0.828943         0.248008         0.265708
 H         0.457655         0.694426        -0.918022
 H        -0.066681        -0.928197        -0.852374
 H         1.360851        -1.172566         2.457145
