19
Iteration:   410
 C         3.821534         1.453733         2.728392
 C         3.013245         0.953285         1.640943
 O         3.339190        -0.490719         1.378602
 C         2.556812        -0.284747         0.201164
 C         2.762003         1.249364         0.251370
 C         1.620624         1.210730         1.217614
 C         1.076560        -0.206176         0.817543
 C        -0.128783        -0.187493        -0.144189
 O         0.926065        -1.192103         1.807636
 H         3.287701         1.113762         3.449751
 H         4.895723         1.291561         2.654643
 H         3.635282         2.548928         2.910605
 H         2.879154        -0.856725        -0.680292
 H         3.166743         1.891361        -0.550740
 H         1.106550         2.048170         1.778635
 H        -0.829942         0.465960         0.305532
 H         0.080813         0.282813        -1.086895
 H        -0.496093        -1.223194        -0.398178
 H         1.782684        -1.165760         2.169486
