19
Iteration:  4743
 C         3.902828         1.885503         2.533749
 C         3.151878         0.920607         1.666718
 O         3.370747        -0.516133         1.662715
 C         2.578329        -0.398701         0.364451
 C         2.594293         1.092794         0.285403
 C         1.640586         1.078285         1.468616
 C         1.166397        -0.288454         0.822209
 C         0.166439        -0.027163        -0.396083
 O         0.507563        -1.285504         1.558656
 H         3.460330         2.329016         3.395799
 H         4.825083         1.210088         2.755868
 H         4.200972         2.704403         1.832150
 H         3.024680        -0.981233        -0.448275
 H         2.805252         1.844161        -0.433328
 H         0.907243         1.790331         1.904954
 H         0.592537         0.619034        -1.074630
 H        -0.220688        -1.064067        -0.803291
 H        -0.752283         0.353081         0.215243
 H         1.102713        -1.405808         2.266366
