19
Iteration:  3737charge 0 multiplicity 1
 C         3.810880         1.424419         2.801914
 C         3.006781         0.967098         1.658549
 O         3.404916        -0.429269         1.316980
 C         2.611429        -0.250337         0.176228
 C         2.701237         1.313921         0.276688
 C         1.554100         1.202691         1.322856
 C         1.171736        -0.112619         0.778154
 C         0.024500        -0.428186        -0.217795
 O         0.752485        -1.130785         1.795834
 H         4.046028         0.574958         3.480917
 H         4.739681         1.793226         2.390003
 H         3.212663         2.203984         3.178270
 H         2.714755        -0.849289        -0.736885
 H         3.004741         2.141324        -0.451319
 H         1.038142         1.993907         1.796872
 H         0.127199        -0.110043        -1.381223
 H        -0.141745        -1.551974        -0.099754
 H        -0.843111         0.196711         0.099728
 H         1.431569        -1.090179         2.443358
