19
Iteration:   785charge 0 multiplicity 1
 C         3.916121         1.645301         2.699526
 C         3.130369         0.923674         1.695257
 O         3.414541        -0.466435         1.358670
 C         2.535657        -0.370407         0.224285
 C         2.604165         1.227729         0.254835
 C         1.645428         1.040374         1.352791
 C         1.076178        -0.244876         0.804702
 C         0.098103        -0.052487        -0.228323
 O         0.648643        -1.257558         1.745728
 H         3.632957         1.290577         3.739095
 H         4.989167         1.843295         2.547521
 H         3.514945         2.634114         2.725005
 H         2.889706        -1.125793        -0.626961
 H         2.599426         2.091611        -0.460136
 H         1.129683         1.803723         1.895582
 H        -0.753783         0.553606         0.206910
 H         0.458858         0.334377        -1.239975
 H        -0.334634        -1.018386        -0.460988
 H         1.205354        -1.125716         2.450274
