19
Iteration:  1697
 C         3.723837         1.482968         2.870098
 C         3.084641         0.838766         1.651130
 O         3.484693        -0.477294         1.233049
 C         2.559661        -0.228802         0.059224
 C         2.748382         1.332518         0.266051
 C         1.624959         1.121116         1.303032
 C         1.132377        -0.271270         0.798441
 C        -0.098991        -0.176328        -0.155976
 O         0.784762        -1.137968         1.848520
 H         3.602955         0.876104         3.773436
 H         4.756371         1.735219         2.776301
 H         3.211370         2.483353         2.961250
 H         2.737339        -0.797072        -0.822908
 H         3.025165         2.027539        -0.520926
 H         1.019123         1.936227         2.008459
 H         0.297686        -0.032369        -1.183558
 H        -0.712171        -1.140247         0.034063
 H        -0.745370         0.744420        -0.038858
 H         1.619474        -1.439497         2.283428
