19
Iteration:  1608
 C         4.112325         1.731103         2.523085
 C         3.103510         0.946535         1.718813
 O         3.403477        -0.432937         1.492585
 C         2.519518        -0.340824         0.277609
 C         2.554804         1.265455         0.406207
 C         1.549986         1.040699         1.581863
 C         1.129720        -0.246931         0.791030
 C        -0.017990        -0.053370        -0.282820
 O         0.643900        -1.391432         1.536273
 H         4.139846         1.442478         3.556705
 H         5.115892         1.408919         2.169619
 H         3.893886         2.760214         2.458075
 H         2.908867        -0.923672        -0.604869
 H         2.817693         1.968198        -0.386764
 H         0.900596         1.909919         1.912461
 H        -0.300306         1.013590        -0.657662
 H         0.419914        -0.481905        -1.141053
 H        -0.902734        -0.640064        -0.046502
 H         1.234172        -1.648706         2.180705
