19
Iteration:  4478
 C         3.802154         1.769896         2.698909
 C         3.058384         0.978027         1.695232
 O         3.387117        -0.452018         1.518891
 C         2.547560        -0.358205         0.223622
 C         2.694202         1.157738         0.261495
 C         1.568870         1.115623         1.292009
 C         1.074407        -0.309523         0.783478
 C         0.080958        -0.056447        -0.251403
 O         0.787333        -1.370744         1.719064
 H         4.481681         0.910558         3.193205
 H         4.479611         2.543527         2.271352
 H         3.013655         2.041904         3.393653
 H         2.794998        -0.873020        -0.717474
 H         2.783689         1.830099        -0.544033
 H         0.944856         1.987054         1.556813
 H         0.349108         0.982544        -0.689686
 H         0.078772        -0.800720        -1.032820
 H        -0.864674         0.034902         0.164476
 H         1.642582        -1.330505         2.249267
