19
Iteration:  1107
 C         3.957788         1.543530         2.749547
 C         3.146263         0.945687         1.680746
 O         3.426389        -0.456635         1.430854
 C         2.547891        -0.317144         0.219259
 C         2.637137         1.219842         0.197235
 C         1.557751         1.243858         1.342146
 C         1.083541        -0.249346         0.772658
 C        -0.032719        -0.171089        -0.196851
 O         0.700620        -1.268781         1.736825
 H         3.616989         1.344447         3.740590
 H         5.060126         1.457757         2.517982
 H         3.776689         2.596211         2.733842
 H         2.738999        -1.065657        -0.524010
 H         2.974208         1.833014        -0.580834
 H         0.862732         2.138735         1.612435
 H        -0.836524         0.295367         0.268368
 H         0.231896         0.516115        -1.038159
 H        -0.222126        -1.117884        -0.814952
 H         1.406923        -1.242588         2.313399
