19
Iteration:  2061
 C         4.122369         1.774889         2.516253
 C         3.115618         0.996995         1.711972
 O         3.493107        -0.423688         1.490572
 C         2.578251        -0.333242         0.308839
 C         2.487363         1.264098         0.428598
 C         1.501690         0.991587         1.550767
 C         1.064072        -0.326828         0.812190
 C         0.112220        -0.038060        -0.276392
 O         0.506728        -1.393213         1.514492
 H         4.395460         1.358028         3.465492
 H         4.977829         1.807108         1.790472
 H         3.791419         2.767574         2.626323
 H         2.810130        -1.070746        -0.530744
 H         2.643879         2.026119        -0.292602
 H         0.912100         1.885315         2.076212
 H         0.632754         0.534088        -1.044917
 H        -0.075176        -1.000427        -0.774950
 H        -0.753778         0.388436         0.038933
 H         1.293827        -1.847440         2.029947
