19
Iteration:  1567
 C         3.893106         1.661641         2.668312
 C         3.166786         0.883142         1.674670
 O         3.458581        -0.524811         1.274552
 C         2.552195        -0.319175         0.193131
 C         2.558045         1.218220         0.359323
 C         1.564742         1.082764         1.425618
 C         1.086696        -0.289653         0.894683
 C         0.075154        -0.037829        -0.294793
 O         0.675160        -1.229544         1.769843
 H         3.966611         1.201311         3.674230
 H         4.902274         1.898669         2.369634
 H         3.204124         2.578778         2.838012
 H         2.594303        -1.016344        -0.619800
 H         2.928210         2.030531        -0.240119
 H         0.841125         1.971527         1.697077
 H        -0.285598         0.912922        -0.180365
 H         0.641074         0.086901        -1.328387
 H        -0.695526        -0.854637        -0.373040
 H         1.417524        -1.401399         2.486997
