19
Iteration:  4988
 C         3.936926         1.788474         2.621804
 C         3.157146         0.937292         1.694245
 O         3.477216        -0.436294         1.515499
 C         2.597267        -0.397424         0.315136
 C         2.621516         1.159164         0.288723
 C         1.596574         1.075007         1.390229
 C         1.150607        -0.329899         0.830487
 C         0.185046        -0.185265        -0.429662
 O         0.375583        -1.206989         1.738199
 H         3.208102         2.481744         3.131543
 H         4.496989         1.218952         3.363557
 H         4.604234         2.465159         2.131650
 H         2.903631        -1.012403        -0.542776
 H         2.568580         1.928421        -0.550580
 H         0.965276         1.882789         1.807558
 H         0.426277         0.966702        -0.734096
 H         0.543105        -0.837165        -1.156690
 H        -0.853096        -0.039274        -0.328488
 H         0.959427        -1.601376         2.382376
