19
Iteration:  4473charge 0 multiplicity 1
 C         3.816732         1.747795         2.738501
 C         3.063253         0.976964         1.663455
 O         3.380434        -0.450452         1.484634
 C         2.551523        -0.406737         0.250259
 C         2.629407         1.166683         0.235408
 C         1.590823         1.097413         1.281173
 C         1.108529        -0.304761         0.811855
 C         0.067642        -0.057556        -0.284145
 O         0.808846        -1.329244         1.727250
 H         4.285398         0.997729         3.242440
 H         4.426838         2.619155         2.520089
 H         3.015531         2.048836         3.440297
 H         2.938624        -0.999492        -0.596349
 H         2.716108         1.961173        -0.556738
 H         0.981747         1.964666         1.564595
 H         0.315432         0.898388        -0.635916
 H         0.095644        -0.772302        -1.140479
 H        -0.942113         0.163824         0.263236
 H         1.619306        -1.318021         2.238884
