19
Iteration:  4127
 C         3.826027         1.749002         2.775395
 C         3.064233         0.946953         1.724869
 O         3.378708        -0.424095         1.437708
 C         2.593257        -0.302091         0.110905
 C         2.646613         1.224022         0.319357
 C         1.624443         1.129868         1.313384
 C         1.131851        -0.380717         0.805786
 C        -0.050101        -0.163816        -0.235523
 O         0.792776        -1.325926         1.647313
 H         4.243734         1.152685         3.530146
 H         4.581421         2.391888         2.396788
 H         3.042969         2.277438         3.324142
 H         2.836166        -0.966102        -0.740637
 H         2.990380         2.036043        -0.366396
 H         1.109990         2.016148         1.812149
 H         0.250823         0.786272        -0.651225
 H         0.121168        -1.025444        -0.833630
 H        -1.063785        -0.026560         0.246024
 H         1.521863        -1.351871         2.234285
