19
Iteration:  1088charge 0 multiplicity 1
 C         3.865276         1.548904         2.746789
 C         3.043142         0.941776         1.672087
 O         3.296316        -0.507776         1.401400
 C         2.527360        -0.335764         0.215108
 C         2.769944         1.218898         0.242952
 C         1.565905         1.177755         1.227503
 C         1.105568        -0.139964         0.800610
 C        -0.085770        -0.188341        -0.184976
 O         0.878840        -1.159209         1.791349
 H         3.453472         1.124276         3.727328
 H         4.968915         1.246721         2.498762
 H         3.899119         2.629823         2.824870
 H         2.786588        -1.116353        -0.605532
 H         3.067620         2.099476        -0.339113
 H         1.191351         2.084501         1.782939
 H        -1.012884        -0.230379         0.395412
 H        -0.017484         0.589536        -1.026701
 H         0.097055        -1.136201        -0.836451
 H         1.677689        -1.557811         1.941435
