19
Iteration:  2574
 C         3.858093         1.674354         2.759357
 C         3.074882         1.004645         1.681612
 O         3.384221        -0.469183         1.355361
 C         2.494729        -0.353386         0.202920
 C         2.749765         1.282535         0.275772
 C         1.618623         1.094956         1.376139
 C         1.100547        -0.255631         0.810832
 C        -0.041180        -0.063883        -0.204790
 O         0.780027        -1.416633         1.678659
 H         3.659788         1.313816         3.790069
 H         4.956069         1.491849         2.577086
 H         3.485588         2.776200         2.778893
 H         2.871781        -0.890082        -0.670890
 H         2.848294         2.209153        -0.355634
 H         0.942162         1.851465         1.902749
 H         0.321871         0.596375        -1.038234
 H        -0.139321        -1.062564        -0.699774
 H        -0.950093         0.361343         0.198159
 H         1.525428        -1.350855         2.234114
