19
Iteration:  3421
 C         4.096928         1.843159         2.576784
 C         3.125267         0.951927         1.747295
 O         3.397304        -0.435463         1.484173
 C         2.526582        -0.284905         0.234484
 C         2.500897         1.234462         0.407876
 C         1.572101         0.980790         1.557461
 C         1.060619        -0.314704         0.777994
 C         0.156811        -0.107665        -0.410887
 O         0.582725        -1.424929         1.653300
 H         4.247846         1.395487         3.611741
 H         4.911260         2.129576         1.821506
 H         3.619293         2.795066         2.928736
 H         2.918037        -0.846946        -0.603235
 H         2.520107         2.185419        -0.275488
 H         0.946339         1.779653         1.845043
 H         0.689827         0.527344        -1.170775
 H        -0.252989        -0.981079        -0.931298
 H        -0.739156         0.478016        -0.134501
 H         1.395632        -1.609865         2.111773
