19
Iteration:   537charge 0 multiplicity 1
 C         4.039283         1.790787         2.498200
 C         3.062026         0.875611         1.748668
 O         3.434795        -0.601959         1.424322
 C         2.507713        -0.345096         0.268446
 C         2.626908         1.167071         0.352510
 C         1.545099         1.193879         1.476423
 C         1.118977        -0.196625         0.831769
 C         0.019652        -0.054995        -0.268462
 O         0.638796        -1.319252         1.642519
 H         4.004662         1.538550         3.639308
 H         5.075899         1.825725         2.250380
 H         3.640221         2.770955         2.412992
 H         2.759638        -1.085752        -0.509787
 H         2.992752         2.034089        -0.183118
 H         1.050983         1.961748         1.864195
 H        -0.959503        -0.334809         0.076011
 H         0.142937         0.916398        -0.779850
 H         0.170657        -0.879816        -0.918835
 H         1.317352        -1.449110         2.276198
