19
Iteration:  4113
 C         3.886605         1.805718         2.687944
 C         3.088316         0.923896         1.725029
 O         3.403643        -0.497890         1.448372
 C         2.578962        -0.295749         0.256066
 C         2.657275         1.254455         0.340110
 C         1.511888         1.073266         1.449541
 C         1.107231        -0.188786         0.745065
 C         0.026297        -0.163389        -0.297648
 O         0.763198        -1.376788         1.616635
 H         4.408459         1.153815         3.367401
 H         4.671391         2.413567         2.103888
 H         3.195649         2.476374         3.213015
 H         3.004767        -0.920012        -0.554732
 H         2.884216         2.068519        -0.330205
 H         0.733922         1.804526         1.810748
 H         0.027034         0.607152        -0.966301
 H        -0.117684        -1.080458        -0.876423
 H        -0.945835        -0.139357         0.242983
 H         1.605208        -1.571896         2.163468
