19
Iteration:  3542
 C         3.766952         1.602182         2.934497
 C         3.081855         0.911294         1.683159
 O         3.336794        -0.454024         1.300542
 C         2.603007        -0.221599         0.057405
 C         2.728351         1.312089         0.247425
 C         1.622720         1.116949         1.284019
 C         1.147250        -0.258765         0.731129
 C        -0.063386        -0.319126        -0.135249
 O         0.833393        -1.158464         1.805483
 H         2.938711         1.552629         3.798127
 H         4.720320         0.939598         2.905154
 H         3.986062         2.683398         2.962295
 H         2.956973        -0.671405        -0.843065
 H         2.974246         1.829091        -0.586792
 H         0.970150         2.003077         1.580888
 H         0.004896         0.381239        -1.102414
 H        -0.393659        -1.370042        -0.354881
 H        -0.867072         0.071511         0.386210
 H         1.763823        -1.594426         2.013193
