19
Iteration:  4984charge 0 multiplicity 1
 C         3.942461         1.801542         2.624070
 C         3.157714         0.928773         1.666483
 O         3.482159        -0.440545         1.545746
 C         2.568920        -0.393816         0.311145
 C         2.611485         1.156702         0.269955
 C         1.619892         1.086913         1.411271
 C         1.128262        -0.343047         0.841022
 C         0.226185        -0.167791        -0.413174
 O         0.377309        -1.214906         1.711224
 H         3.233750         2.395980         3.125138
 H         4.540383         1.216965         3.305644
 H         4.582483         2.580557         2.138061
 H         2.958854        -1.033705        -0.471435
 H         2.402211         1.838274        -0.496773
 H         0.932163         1.904000         1.719764
 H         0.379434         0.866597        -0.669251
 H         0.510855        -0.815238        -1.323377
 H        -0.885473         0.054945        -0.292733
 H         0.944800        -1.622961         2.419346
