19
Iteration:  2605
 C         3.629372         1.508841         2.860248
 C         3.067427         0.848081         1.637782
 O         3.457709        -0.532195         1.288493
 C         2.557045        -0.282413         0.100349
 C         2.675685         1.244095         0.296933
 C         1.624002         1.108679         1.304926
 C         1.152441        -0.153288         0.771037
 C        -0.047256        -0.145221        -0.109456
 O         0.898598        -1.119652         1.784388
 H         2.998742         1.244376         3.706089
 H         4.734365         1.342824         3.023732
 H         3.678221         2.545070         2.415265
 H         2.995796        -0.654484        -0.780929
 H         2.765542         2.060801        -0.448752
 H         0.928207         1.916601         1.743463
 H        -0.064715         0.543642        -1.073313
 H        -0.142018        -1.222070        -0.367795
 H        -0.985577         0.027703         0.281285
 H         1.908781        -1.185233         2.077574
