19
Iteration:  2452
 C         3.860306         1.616100         2.852212
 C         3.061172         0.972944         1.670494
 O         3.444083        -0.448851         1.361376
 C         2.622887        -0.358945         0.173192
 C         2.702785         1.263532         0.195795
 C         1.502106         1.096334         1.290356
 C         1.140529        -0.288540         0.793091
 C        -0.047805        -0.068899        -0.188030
 O         0.763547        -1.302416         1.733535
 H         3.390776         1.329214         3.817321
 H         5.000454         1.452437         2.834149
 H         3.537248         2.700861         2.827229
 H         2.764547        -1.002671        -0.666806
 H         2.938344         2.166973        -0.373327
 H         0.787270         1.662811         1.830929
 H         0.050376         0.731830        -1.037343
 H        -0.258227        -0.996227        -0.744910
 H        -0.894188         0.170054         0.406425
 H         1.676965        -1.254244         2.223485
