19
Iteration:   750charge 0 multiplicity 1
 C         3.940711         1.895215         2.538221
 C         3.088220         0.837427         1.746128
 O         3.522131        -0.531271         1.356436
 C         2.538275        -0.440427         0.294717
 C         2.598412         1.178642         0.395882
 C         1.587730         0.989566         1.504893
 C         1.080507        -0.248568         0.850845
 C         0.110985         0.064539        -0.286263
 O         0.545933        -1.295634         1.647211
 H         3.936419         1.750444         3.609891
 H         5.043016         1.867314         2.203822
 H         3.422690         2.791579         2.284067
 H         2.730467        -0.881813        -0.751281
 H         2.873706         1.835513        -0.426531
 H         1.178676         1.706798         2.110292
 H        -0.768770         0.574147         0.053190
 H         0.511199         0.643168        -1.119577
 H        -0.223588        -1.029997        -0.581675
 H         1.279434        -1.618224         2.117457
