19
Iteration:  1758
 C         3.898603         1.436773         2.785483
 C         3.051380         0.956512         1.692800
 O         3.300335        -0.522241         1.381025
 C         2.530337        -0.282429         0.100462
 C         2.723720         1.313527         0.267136
 C         1.560539         1.277753         1.293028
 C         1.092680        -0.200199         0.811466
 C        -0.047527        -0.205602        -0.199332
 O         0.874402        -1.192060         1.788892
 H         3.560169         0.781796         3.633212
 H         5.021595         1.651831         2.574893
 H         3.542294         2.408835         3.119148
 H         2.754054        -1.039494        -0.708109
 H         3.041963         2.108031        -0.336757
 H         1.043611         2.110731         1.700457
 H         0.101190         0.465736        -1.139155
 H         0.032142        -1.169551        -0.672609
 H        -1.041344        -0.225204         0.184208
 H         1.844273        -1.478801         2.001038
