19
Iteration:  4115charge 0 multiplicity 1
 C         3.885299         1.796816         2.690010
 C         3.097669         0.923717         1.736700
 O         3.399406        -0.491261         1.447090
 C         2.582569        -0.293940         0.230295
 C         2.649886         1.241667         0.339105
 C         1.531233         1.087701         1.433112
 C         1.098152        -0.199019         0.749080
 C         0.023252        -0.168797        -0.282936
 O         0.766353        -1.376384         1.622036
 H         4.361541         1.185538         3.375790
 H         4.625121         2.456059         2.220410
 H         3.199522         2.464984         3.215971
 H         3.020459        -0.932377        -0.562055
 H         2.905421         2.085464        -0.338798
 H         0.706645         1.794313         1.789202
 H         0.043612         0.599929        -0.971796
 H        -0.115293        -1.021059        -0.914208
 H        -0.983424        -0.135567         0.250335
 H         1.583839        -1.543305         2.171615
