19
Iteration:    49charge 0 multiplicity 1
 C         4.116264         1.722355         2.419461
 C         3.145709         0.904487         1.643589
 O         3.355935        -0.516590         1.608101
 C         2.537120        -0.423811         0.317399
 C         2.657339         1.156238         0.247110
 C         1.610666         1.118432         1.414611
 C         1.011411        -0.225391         0.852630
 C         0.016365        -0.037813        -0.254632
 O         0.550047        -1.197018         1.723460
 H         4.233514         1.518246         3.486605
 H         5.131720         1.466310         1.934728
 H         3.865542         2.780660         2.273685
 H         2.885071        -1.233899        -0.367671
 H         2.915355         1.886559        -0.546497
 H         1.086954         1.961495         1.961899
 H        -0.357664         1.031405        -0.352199
 H         0.459981        -0.342559        -1.300680
 H        -0.824120        -0.783881        -0.090556
 H         1.371867        -1.706254         2.112380
