19
Iteration:  3039charge 0 multiplicity 1
 C         3.819535         1.589423         2.766254
 C         3.058995         0.855051         1.649475
 O         3.387087        -0.482846         1.345604
 C         2.600228        -0.263423         0.187291
 C         2.703061         1.257024         0.291698
 C         1.551313         1.180356         1.285075
 C         1.117918        -0.266904         0.793817
 C        -0.044266        -0.115300        -0.197696
 O         0.806630        -1.270827         1.803657
 H         3.912693         0.994099         3.652093
 H         4.850029         1.846662         2.397053
 H         3.168643         2.487197         2.938584
 H         2.859812        -0.870402        -0.721234
 H         3.076315         2.145105        -0.335927
 H         1.056134         2.042224         1.737924
 H         0.247063         0.484248        -1.156117
 H        -0.265659        -1.024516        -0.727518
 H        -0.893565         0.215687         0.313309
 H         1.622342        -1.365175         2.289693
