19
Iteration:  1779
 C         3.891761         1.613467         2.694692
 C         3.092425         0.833178         1.712433
 O         3.359958        -0.513421         1.398060
 C         2.580617        -0.263400         0.219670
 C         2.691259         1.225448         0.303660
 C         1.548017         1.055344         1.412949
 C         1.093434        -0.163279         0.765896
 C        -0.040616        -0.146997        -0.225727
 O         0.775827        -1.167352         1.659413
 H         3.847419         1.339612         3.812426
 H         5.000100         1.570700         2.275906
 H         3.729564         2.677870         2.748890
 H         2.718921        -0.934368        -0.672528
 H         2.975791         2.014608        -0.314339
 H         1.163497         1.811566         2.007225
 H        -0.225167         0.779924        -0.882963
 H        -0.004582        -0.887775        -1.087835
 H        -0.873974        -0.466683         0.399020
 H         1.624662        -1.124817         2.276146
