19
Iteration:  4263
 C         3.863044         1.722750         2.647599
 C         2.991957         0.979648         1.693705
 O         3.399407        -0.389028         1.446989
 C         2.626991        -0.322437         0.264806
 C         2.543401         1.211532         0.277412
 C         1.521442         1.102766         1.486838
 C         1.096020        -0.264066         0.813482
 C         0.144844        -0.072611        -0.267526
 O         0.784744        -1.454205         1.638283
 H         3.547722         2.148309         3.602486
 H         4.696217         0.978364         2.746798
 H         4.371821         2.469081         2.055518
 H         3.056443        -0.974847        -0.521723
 H         2.708781         1.990652        -0.501931
 H         0.736321         1.824080         1.877351
 H         0.262917         0.754812        -1.094251
 H         0.166084        -1.043291        -0.863743
 H        -0.874871         0.154731         0.027041
 H         1.341644        -1.371193         2.402970
