19
Iteration:  3900
 C         3.928935         1.728000         2.656588
 C         3.044648         0.868148         1.751783
 O         3.421082        -0.474929         1.366418
 C         2.526520        -0.251902         0.171630
 C         2.525803         1.301641         0.299739
 C         1.523243         1.079097         1.405043
 C         1.113545        -0.263700         0.864229
 C         0.163896        -0.163280        -0.368219
 O         0.693989        -1.341377         1.765603
 H         4.353465         1.294706         3.694581
 H         4.908280         2.157157         2.267418
 H         3.389249         2.644243         3.040665
 H         2.957900        -0.854786        -0.626714
 H         2.654044         2.162299        -0.264450
 H         1.004929         1.829028         1.977313
 H         0.840529         0.488239        -1.050226
 H        -0.009563        -1.195672        -0.732452
 H        -0.755882         0.264573        -0.126808
 H         1.303239        -1.576596         2.424039
