19
Iteration:  3622
 C         3.910674         1.763610         2.554729
 C         3.030654         0.936800         1.693690
 O         3.501904        -0.405858         1.416441
 C         2.582688        -0.311695         0.311741
 C         2.601179         1.198008         0.385279
 C         1.552677         1.076260         1.502547
 C         1.130090        -0.279530         0.843913
 C         0.108476        -0.118846        -0.261828
 O         0.614043        -1.350353         1.594407
 H         3.495747         1.934741         3.590219
 H         4.853058         1.261834         2.744754
 H         4.087282         2.695034         1.902934
 H         2.677452        -0.907407        -0.636860
 H         2.822244         2.039640        -0.380112
 H         0.929575         1.762226         2.009091
 H         0.214996         0.806039        -0.836889
 H         0.028709        -0.955933        -0.967596
 H        -0.895871        -0.011236         0.207376
 H         1.348457        -1.967700         1.923477
