19
Iteration:   164charge 0 multiplicity 1
 C         3.931754         1.521051         2.752875
 C         3.086121         0.957998         1.653584
 O         3.220806        -0.477983         1.508924
 C         2.475269        -0.409016         0.167831
 C         2.731699         1.162434         0.159034
 C         1.613202         1.251431         1.172558
 C         1.136733        -0.124733         0.789803
 C        -0.104665        -0.209201        -0.102972
 O         0.903697        -1.122760         1.743323
 H         3.805151         0.874096         3.686917
 H         5.042095         1.232179         2.547795
 H         3.775593         2.571865         3.011766
 H         2.854410        -1.184668        -0.398251
 H         3.167199         1.885728        -0.586454
 H         0.933271         1.942077         1.557367
 H         0.168544        -0.554731        -1.149386
 H        -0.842784        -0.894320         0.344708
 H        -0.616078         0.846666        -0.290669
 H         1.690437        -1.163338         2.212365
