19
Iteration:   929
 C         3.998420         1.687426         2.529445
 C         3.146404         0.960692         1.674051
 O         3.408962        -0.480605         1.494985
 C         2.569530        -0.330931         0.323649
 C         2.654117         1.194177         0.329730
 C         1.573190         1.067059         1.416429
 C         1.040327        -0.225522         0.849580
 C         0.005882         0.010566        -0.281121
 O         0.654238        -1.401915         1.634317
 H         3.842876         1.391999         3.592372
 H         5.018614         1.661718         2.220895
 H         3.728365         2.779240         2.397750
 H         2.765148        -1.037811        -0.485062
 H         2.979438         1.915565        -0.423260
 H         0.894803         1.891518         1.814637
 H        -0.886571         0.691078         0.046991
 H         0.527619         0.405017        -1.169073
 H        -0.527751        -0.872305        -0.528051
 H         1.205161        -1.341851         2.452816
