19
Iteration:   252charge 0 multiplicity 1
 C         3.948771         1.707860         2.537664
 C         3.117942         0.908249         1.679598
 O         3.430022        -0.484466         1.423179
 C         2.488438        -0.353875         0.306625
 C         2.662182         1.216213         0.291398
 C         1.632833         1.054268         1.471795
 C         1.065007        -0.252257         0.825275
 C        -0.009914        -0.033305        -0.310220
 O         0.670799        -1.292075         1.731036
 H         3.832377         1.344777         3.554177
 H         5.034381         1.796250         2.177894
 H         3.687459         2.739523         2.459507
 H         2.781722        -1.000376        -0.496621
 H         2.943824         1.951274        -0.450072
 H         1.030675         1.816652         2.117986
 H        -0.912927        -0.738594        -0.236597
 H        -0.507975         0.949323        -0.061180
 H         0.504113        -0.138975        -1.284516
 H         1.541293        -1.531924         2.216181
