19
Iteration:    44charge 0 multiplicity 1
 C         4.100494         1.704642         2.385343
 C         3.198377         0.873999         1.628858
 O         3.319496        -0.509660         1.609135
 C         2.528534        -0.427916         0.341888
 C         2.677342         1.173882         0.286929
 C         1.565498         1.135395         1.435252
 C         1.014426        -0.227438         0.789658
 C         0.021209        -0.054395        -0.264484
 O         0.581719        -1.201832         1.741754
 H         4.175264         1.429494         3.450717
 H         5.078989         1.577767         1.958718
 H         3.885157         2.761083         2.177477
 H         2.897185        -1.155891        -0.361854
 H         3.106225         1.893945        -0.405213
 H         1.029717         1.982450         1.786866
 H        -0.425433         0.915712        -0.210710
 H         0.404457        -0.217599        -1.214836
 H        -0.817870        -0.681669        -0.048243
 H         1.379030        -1.527896         2.109564
