19
Iteration:  2516charge 0 multiplicity 1
 C         4.112477         1.785310         2.485317
 C         3.092665         0.900581         1.825231
 O         3.425064        -0.437138         1.469087
 C         2.513275        -0.307467         0.242831
 C         2.539453         1.211732         0.440055
 C         1.520224         1.097288         1.561089
 C         1.039423        -0.345628         0.797359
 C         0.166164        -0.063253        -0.377432
 O         0.596973        -1.436255         1.577433
 H         4.594481         1.452548         3.428040
 H         4.781737         2.399061         1.820367
 H         3.449807         2.599629         2.848887
 H         2.899540        -0.658757        -0.690666
 H         2.668023         2.020714        -0.244726
 H         0.980487         1.943218         1.908669
 H         0.594916         0.955497        -0.709307
 H         0.210794        -0.812395        -1.159031
 H        -0.878646        -0.026151        -0.099952
 H         0.949891        -1.522350         2.550628
