19
Iteration:   636
 C         3.731009         1.508666         2.834303
 C         3.144949         0.826823         1.612674
 O         3.432040        -0.535376         1.215397
 C         2.529750        -0.314866         0.103494
 C         2.746555         1.293246         0.248264
 C         1.574370         1.177484         1.245836
 C         1.141552        -0.161130         0.837762
 C        -0.072860        -0.259113        -0.136789
 O         0.844963        -1.032869         1.875140
 H         3.289405         0.945801         3.725655
 H         4.753223         1.503646         3.118421
 H         3.254715         2.526358         2.944234
 H         2.552589        -0.993754        -0.718628
 H         3.105600         1.989571        -0.516866
 H         0.969493         1.804473         1.931120
 H        -0.942853         0.337428         0.284756
 H         0.156837         0.384217        -1.064363
 H        -0.325311        -1.301828        -0.551702
 H         1.634615        -1.216569         2.529264
