19
Iteration:  2283charge 0 multiplicity 1
 C         4.013182         1.833688         2.488463
 C         3.107308         0.930676         1.756759
 O         3.389290        -0.564520         1.564499
 C         2.627077        -0.345852         0.235635
 C         2.679699         1.259565         0.399739
 C         1.520529         1.082797         1.400283
 C         1.107070        -0.337492         0.787821
 C         0.008333         0.011293        -0.238392
 O         0.588822        -1.387762         1.578843
 H         4.390105         1.388519         3.436948
 H         4.784725         2.125886         1.796927
 H         3.397409         2.737679         2.857497
 H         3.106051        -1.009772        -0.539192
 H         3.146680         1.864699        -0.367714
 H         0.775453         1.856654         1.789471
 H         0.396430         0.820459        -0.794753
 H        -0.483575        -0.744916        -0.833375
 H        -0.855963         0.320812         0.403235
 H         1.343408        -1.617022         2.084600
