19
Iteration:   917
 C         3.992446         1.723579         2.654868
 C         3.109862         0.880398         1.628129
 O         3.413715        -0.440672         1.455117
 C         2.525472        -0.424261         0.247826
 C         2.562290         1.183312         0.223691
 C         1.618285         1.113075         1.416114
 C         1.089208        -0.275667         0.849818
 C         0.030693         0.007550        -0.282983
 O         0.678863        -1.350566         1.686437
 H         3.783218         1.369577         3.700479
 H         5.019252         1.539648         2.551088
 H         3.680202         2.775073         2.637093
 H         2.882810        -1.224534        -0.503575
 H         2.803440         2.026972        -0.375562
 H         1.131095         2.095411         1.853900
 H        -0.734556         0.713351         0.226725
 H         0.436631         0.710432        -1.069818
 H        -0.323811        -0.849559        -0.700087
 H         1.113467        -1.268425         2.648137
