19
Iteration:  3795charge 0 multiplicity 1
 C         3.711601         1.585520         2.733505
 C         3.050093         0.916790         1.599635
 O         3.376360        -0.496113         1.422754
 C         2.536111        -0.362322         0.154000
 C         2.658034         1.273486         0.270912
 C         1.559384         1.139416         1.305721
 C         1.137308        -0.188049         0.796183
 C         0.061609        -0.171808        -0.152998
 O         0.898472        -1.201619         1.769719
 H         3.241674         1.305327         3.714381
 H         4.793334         1.448973         2.696892
 H         3.651587         2.709081         2.602012
 H         2.662643        -1.053389        -0.672900
 H         3.062333         1.988117        -0.358259
 H         0.943755         1.855903         1.895475
 H         0.247382         0.801154        -0.820742
 H        -0.029997        -0.902327        -1.003176
 H        -0.936762        -0.137974         0.288638
 H         1.814248        -1.433007         2.181302
