19
Iteration:  3596charge 0 multiplicity 1
 C         4.011668         1.757112         2.733546
 C         3.013612         0.940398         1.661636
 O         3.344671        -0.466961         1.405704
 C         2.563331        -0.315480         0.151061
 C         2.546593         1.285611         0.324190
 C         1.551393         1.076006         1.435917
 C         1.104054        -0.280982         0.814628
 C         0.101379        -0.122128        -0.326681
 O         0.771996        -1.374993         1.746651
 H         3.471094         1.925615         3.733175
 H         4.898531         1.117578         3.063814
 H         4.291610         2.620019         2.173705
 H         2.734237        -0.877752        -0.747709
 H         2.575970         2.024223        -0.390741
 H         0.780800         1.721940         1.926621
 H         0.445035         0.697975        -1.070648
 H         0.005687        -1.096887        -0.863450
 H        -0.863805         0.266730        -0.184781
 H         1.501873        -1.285948         2.479685
