19
Iteration:  3266charge 0 multiplicity 1
 C         3.807679         1.547850         2.759558
 C         3.080664         0.906668         1.663128
 O         3.462304        -0.414254         1.296241
 C         2.585812        -0.302831         0.155115
 C         2.670834         1.331015         0.264921
 C         1.583777         1.141696         1.361824
 C         1.139431        -0.292336         0.843776
 C         0.073386        -0.271697        -0.234289
 O         0.639858        -1.157380         1.797796
 H         3.825018         0.832422         3.595416
 H         4.905600         1.788988         2.595870
 H         3.255998         2.485138         3.126315
 H         2.907292        -0.985256        -0.666359
 H         2.846235         2.195686        -0.283122
 H         0.977934         2.022308         1.773409
 H         0.431218         0.360485        -0.981464
 H        -0.164748        -1.278471        -0.536247
 H        -0.937474         0.335439         0.100620
 H         1.433730        -1.595589         2.085790
