19
Iteration:   208charge 0 multiplicity 1
 C         3.826158         1.605265         2.701518
 C         3.142746         0.871850         1.613285
 O         3.457743        -0.519169         1.354433
 C         2.538237        -0.382093         0.168782
 C         2.679383         1.232485         0.206180
 C         1.595324         1.076365         1.387914
 C         1.095911        -0.183565         0.821690
 C        -0.029497        -0.147615        -0.205985
 O         0.710886        -1.077235         1.827935
 H         3.480051         1.281781         3.709505
 H         4.974147         1.434440         2.748452
 H         3.685404         2.681005         2.565609
 H         2.667926        -1.072767        -0.624669
 H         2.964326         2.018567        -0.530972
 H         1.155182         1.793222         2.100221
 H        -0.087370        -1.141968        -0.759422
 H        -1.005197        -0.058013         0.350484
 H         0.132949         0.647940        -0.998428
 H         1.570354        -1.176764         2.285007
