19
Iteration:  4471charge 0 multiplicity 1
 C         3.808950         1.736220         2.753100
 C         3.066382         0.977843         1.646195
 O         3.377279        -0.449831         1.469150
 C         2.557806        -0.421187         0.258002
 C         2.605777         1.171551         0.219546
 C         1.592509         1.093422         1.285339
 C         1.126243        -0.301645         0.821251
 C         0.056944        -0.056122        -0.289792
 O         0.816884        -1.309625         1.729800
 H         4.296355         0.976191         3.325244
 H         4.429820         2.664251         2.586946
 H         3.036771         2.088387         3.476867
 H         2.987618        -1.084290        -0.507528
 H         2.710218         1.985374        -0.535549
 H         1.013786         1.918228         1.579936
 H         0.308674         0.902026        -0.665734
 H         0.068981        -0.786033        -1.178288
 H        -0.926987         0.158356         0.244757
 H         1.608200        -1.344861         2.252829
