19
Iteration:  4519charge 0 multiplicity 1
 C         4.018564         1.860828         2.595707
 C         3.123209         0.945664         1.770463
 O         3.366212        -0.544799         1.621155
 C         2.568021        -0.294693         0.252605
 C         2.629076         1.199483         0.439267
 C         1.489498         1.077372         1.453752
 C         1.141126        -0.275725         0.700074
 C        -0.021962        -0.203487        -0.353799
 O         0.702152        -1.281330         1.524582
 H         4.984264         1.360786         2.788440
 H         4.216703         2.647975         1.939058
 H         3.659652         2.344860         3.488210
 H         3.006349        -0.965375        -0.503424
 H         2.608831         1.879697        -0.352434
 H         0.931472         2.027568         1.739707
 H         0.045755         0.520986        -1.257697
 H         0.002746        -1.183575        -0.733807
 H        -0.943959         0.024640         0.223373
 H         1.434627        -1.424754         2.133399
