19
Iteration:  2787charge 0 multiplicity 1
 C         3.913665         1.671746         2.577301
 C         3.061421         0.925660         1.712104
 O         3.376781        -0.446770         1.446679
 C         2.568505        -0.388315         0.229349
 C         2.643653         1.270355         0.318406
 C         1.582857         1.075048         1.479271
 C         1.191643        -0.245853         0.845920
 C         0.029314        -0.067873        -0.269008
 O         0.699145        -1.310553         1.622710
 H         3.839647         1.630924         3.661150
 H         4.925788         1.185473         2.473043
 H         3.751452         2.680229         2.297209
 H         2.898161        -0.949898        -0.611429
 H         2.668726         2.208618        -0.331408
 H         0.914574         1.911402         2.038854
 H        -0.099184         0.712175        -1.090119
 H        -0.087847        -1.006544        -0.755892
 H        -0.884342         0.153855         0.238200
 H         1.380728        -1.567269         2.336770
