19
Iteration:  3858charge 0 multiplicity 1
 C         3.899676         1.807695         2.586566
 C         3.054056         0.957679         1.712890
 O         3.443751        -0.409616         1.570156
 C         2.632225        -0.376611         0.259698
 C         2.545905         1.197371         0.300358
 C         1.577740         1.067067         1.478595
 C         1.172728        -0.275988         0.845399
 C         0.023530        -0.007988        -0.222364
 O         0.664290        -1.431862         1.491676
 H         3.936644         1.507414         3.689213
 H         4.876953         1.598657         2.105041
 H         3.742786         2.800581         2.189993
 H         2.889290        -1.029249        -0.566471
 H         2.680552         1.942787        -0.405332
 H         0.944325         1.786763         1.982643
 H         0.321520         0.706801        -1.163047
 H        -0.135889        -1.071870        -0.624013
 H        -0.903362         0.157255         0.265626
 H         1.460346        -1.635084         2.094791
