19
Iteration:  2672charge 0 multiplicity 1
 C         3.883396         1.482547         2.778509
 C         3.038443         0.925621         1.640888
 O         3.336201        -0.448134         1.395059
 C         2.505978        -0.300588         0.173820
 C         2.667106         1.320846         0.248155
 C         1.569011         1.201419         1.366577
 C         1.132378        -0.204378         0.758027
 C         0.012670        -0.229238        -0.259794
 O         0.828983        -1.180624         1.767996
 H         3.761549         0.803508         3.636816
 H         4.974087         1.524801         2.693797
 H         3.349933         2.448309         3.011979
 H         2.829747        -1.015241        -0.607091
 H         3.203321         1.932613        -0.516579
 H         0.972992         1.918073         1.863570
 H        -0.026141         0.464976        -1.136059
 H         0.118917        -1.323561        -0.476651
 H        -0.898487        -0.153273         0.327217
 H         1.774607        -1.151271         2.202833
