19
Iteration:  3672charge 0 multiplicity 1
 C         3.836601         1.780524         2.619881
 C         3.041700         0.929265         1.695696
 O         3.370045        -0.484951         1.473224
 C         2.612908        -0.307479         0.198731
 C         2.655721         1.185978         0.239983
 C         1.587347         1.110212         1.385036
 C         1.120795        -0.307022         0.821373
 C         0.117081         0.013202        -0.139199
 O         0.690221        -1.429281         1.649894
 H         3.989873         1.371918         3.669075
 H         4.862161         1.964860         2.224926
 H         3.409264         2.769613         2.668014
 H         2.876011        -1.052404        -0.549831
 H         3.003290         2.032531        -0.396982
 H         0.859435         1.808313         1.800690
 H         0.250294         0.933849        -0.860245
 H         0.103376        -0.751414        -0.992896
 H        -0.879890        -0.114859         0.348720
 H         1.307780        -1.465963         2.348150
