19
Iteration:  4844charge 0 multiplicity 1
 C         3.636669         1.450255         2.848269
 C         3.087726         0.895853         1.599059
 O         3.491213        -0.527730         1.388884
 C         2.694058        -0.385525         0.220079
 C         2.788193         1.132221         0.143826
 C         1.575175         1.208672         1.160651
 C         1.046437        -0.124901         0.787996
 C         0.089693        -0.367648        -0.282162
 O         0.620160        -0.846236         1.980362
 H         3.957347         0.638333         3.602350
 H         4.479974         2.131087         2.588491
 H         2.805165         2.048792         3.390702
 H         2.837322        -0.999684        -0.663951
 H         2.983937         1.957815        -0.538937
 H         1.228056         2.189551         1.393609
 H         0.561767         0.329963        -1.143260
 H         0.202780        -1.453210        -0.516906
 H        -0.945560         0.056872        -0.092999
 H         1.505419        -0.879873         2.430187
