19
Iteration:  1490charge 0 multiplicity 1
 C         3.856146         1.508732         2.725502
 C         3.086484         0.850718         1.697092
 O         3.246847        -0.514954         1.436335
 C         2.523847        -0.332350         0.138206
 C         2.781461         1.215201         0.266122
 C         1.633854         1.230309         1.320469
 C         1.046796        -0.137949         0.705744
 C        -0.134408        -0.236148        -0.188174
 O         0.939223        -1.103800         1.783691
 H         3.508734         1.251610         3.770297
 H         4.964861         1.289659         2.673751
 H         3.556440         2.598618         2.588432
 H         2.837815        -1.007892        -0.719796
 H         3.275921         2.029799        -0.395605
 H         1.200794         2.164006         1.686505
 H        -0.956169        -0.708764         0.392290
 H        -0.384197         0.871536        -0.503135
 H         0.110653        -0.929833        -1.043518
 H         1.790522        -1.104207         2.137464
