19
Iteration:  3897
 C         3.941796         1.734441         2.665572
 C         3.069326         0.900806         1.734449
 O         3.407459        -0.479450         1.365467
 C         2.530653        -0.269043         0.183213
 C         2.506834         1.283739         0.323874
 C         1.508175         1.092551         1.413388
 C         1.106713        -0.288613         0.865789
 C         0.191129        -0.127339        -0.388902
 O         0.697241        -1.367342         1.768320
 H         4.319806         1.461350         3.610784
 H         4.889002         2.072249         2.205120
 H         3.411301         2.617169         3.003298
 H         3.001451        -0.880657        -0.609853
 H         2.732482         2.223800        -0.274535
 H         0.996319         1.828685         1.951602
 H         0.620222         0.446633        -1.089232
 H         0.005453        -1.106146        -0.741925
 H        -0.805562         0.358158        -0.179912
 H         1.306241        -1.664183         2.502306
