19
Iteration:  1171charge 0 multiplicity 1
 C         3.979656         1.870436         2.508494
 C         3.081890         0.871272         1.718643
 O         3.537281        -0.560671         1.388843
 C         2.531426        -0.374452         0.274979
 C         2.654326         1.206210         0.356806
 C         1.585855         0.981969         1.554837
 C         1.059314        -0.254124         0.860884
 C         0.109166         0.021542        -0.304073
 O         0.491129        -1.316003         1.690239
 H         4.258155         1.601888         3.541970
 H         4.830172         2.043076         1.810340
 H         3.403910         2.818792         2.666729
 H         2.668114        -1.074690        -0.513775
 H         2.746715         2.051848        -0.267537
 H         0.979587         1.862623         2.103576
 H        -0.592971         0.914718        -0.210798
 H         0.628076         0.486939        -1.227931
 H        -0.236543        -0.997120        -0.712925
 H         1.250736        -1.832736         1.992628
