19
Iteration:  4941
 C         3.920667         1.845802         2.521412
 C         3.088846         0.916135         1.756353
 O         3.377974        -0.515496         1.691871
 C         2.579070        -0.434325         0.356182
 C         2.741122         1.112714         0.307950
 C         1.569640         1.125352         1.312319
 C         1.071833        -0.284314         0.785771
 C         0.108036        -0.019149        -0.371055
 O         0.558859        -1.326864         1.600196
 H         3.662785         2.059672         3.514656
 H         4.925199         1.470029         2.450736
 H         3.918731         2.824445         1.994725
 H         2.906998        -1.166566        -0.369363
 H         3.127602         1.807466        -0.371879
 H         1.131475         2.100887         1.550844
 H         0.254849         0.976753        -0.817784
 H         0.029670        -0.917026        -1.001803
 H        -0.794871         0.279136         0.239827
 H         1.302669        -1.381579         2.205895
