19
Iteration:   582charge 0 multiplicity 1
 C         3.863104         1.549086         2.762376
 C         3.035216         0.945466         1.642793
 O         3.354432        -0.470667         1.396460
 C         2.558799        -0.357487         0.179545
 C         2.667511         1.231263         0.261276
 C         1.605864         1.166789         1.226049
 C         1.112413        -0.185554         0.831002
 C        -0.071693        -0.114883        -0.182561
 O         0.870098        -1.232420         1.770807
 H         3.607127         0.943970         3.666018
 H         4.866984         1.246515         2.512126
 H         3.829418         2.637016         2.939822
 H         2.756355        -1.018013        -0.642769
 H         3.117972         1.899466        -0.450797
 H         0.979869         1.994122         1.549977
 H        -0.914500         0.355487         0.259018
 H         0.189576         0.374474        -1.089769
 H        -0.577383        -1.086043        -0.255958
 H         1.713144        -1.176384         2.274916
