19
Iteration:  3220
 C         3.950377         1.750631         2.525139
 C         3.086781         0.911478         1.767164
 O         3.444987        -0.453576         1.442080
 C         2.563598        -0.376104         0.306428
 C         2.606070         1.187536         0.426424
 C         1.490737         1.078822         1.412713
 C         1.098674        -0.190954         0.837189
 C         0.087556        -0.006329        -0.299070
 O         0.691386        -1.444068         1.584547
 H         4.168633         1.487029         3.620069
 H         4.959455         1.806216         2.024768
 H         3.527585         2.769387         2.446271
 H         2.637483        -1.121222        -0.483634
 H         2.752166         2.146716        -0.173267
 H         0.873633         1.883032         1.812438
 H         0.495235         0.713720        -0.969757
 H        -0.189853        -0.975296        -0.775713
 H        -0.862546         0.537322         0.136328
 H         1.264612        -1.422723         2.312888
