19
Iteration:  1809
 C         3.949134         1.805534         2.596235
 C         3.134334         0.881484         1.726208
 O         3.455501        -0.483871         1.388935
 C         2.543770        -0.316489         0.276885
 C         2.597364         1.185459         0.327733
 C         1.607204         1.061673         1.481786
 C         1.104518        -0.336444         0.832658
 C         0.085497         0.059542        -0.264780
 O         0.553333        -1.396246         1.650240
 H         3.776672         1.660701         3.684895
 H         4.989425         1.644837         2.364077
 H         3.870610         2.823686         2.235235
 H         2.725669        -0.993300        -0.629353
 H         3.016604         1.963268        -0.286580
 H         1.171658         1.915505         1.851863
 H        -0.005483         1.111098        -0.289256
 H         0.103798        -0.387945        -1.404526
 H        -0.910035        -0.250136         0.110728
 H         1.267195        -1.771101         2.105328
