19
Iteration:  2774charge 0 multiplicity 1
 C         4.000285         1.749727         2.574701
 C         3.077559         0.933654         1.711216
 O         3.494293        -0.426396         1.502858
 C         2.629999        -0.329762         0.293281
 C         2.541835         1.176375         0.325922
 C         1.595809         1.040427         1.497661
 C         1.087469        -0.268922         0.791073
 C        -0.024113        -0.026645        -0.272569
 O         0.604630        -1.356390         1.559155
 H         3.703960         1.607874         3.635385
 H         5.041257         1.495531         2.323612
 H         4.023524         2.782416         2.280379
 H         2.976236        -1.053051        -0.465667
 H         2.677356         1.968600        -0.475338
 H         0.998570         1.870682         2.058423
 H         0.326535         0.728909        -0.883341
 H        -0.247706        -0.969403        -0.732701
 H        -0.951818         0.265170         0.338376
 H         1.374441        -1.739740         1.961386
