19
Iteration:  1509charge 0 multiplicity 1
 C         3.817206         1.552240         2.844962
 C         3.080375         0.979159         1.688342
 O         3.334960        -0.574900         1.369100
 C         2.527944        -0.308973         0.164085
 C         2.817642         1.220740         0.222297
 C         1.631455         1.275823         1.170805
 C         1.109003        -0.141053         0.809996
 C        -0.129860        -0.185902        -0.122476
 O         0.841280        -1.181653         1.766483
 H         3.600172         0.889119         3.651262
 H         4.895123         1.459316         2.536267
 H         3.661858         2.541868         3.043428
 H         2.561593        -1.119776        -0.654632
 H         3.239269         1.843447        -0.606536
 H         1.091157         1.997852         1.636144
 H        -1.055250        -0.499176         0.460093
 H        -0.231731         0.581207        -0.795791
 H        -0.076384        -1.048298        -0.722488
 H         1.665580        -1.501340         2.032237
