19
Iteration:  3619
 C         3.915553         1.766019         2.561754
 C         3.039784         0.942391         1.686037
 O         3.466771        -0.406880         1.399271
 C         2.576555        -0.292318         0.311040
 C         2.600495         1.207581         0.389922
 C         1.561309         1.075372         1.481271
 C         1.132613        -0.314845         0.840500
 C         0.128916        -0.127848        -0.253523
 O         0.619184        -1.349076         1.610823
 H         3.460316         1.972000         3.611519
 H         4.866292         1.191139         2.727122
 H         4.092343         2.644824         1.934091
 H         2.658317        -0.918882        -0.565333
 H         2.806889         2.070786        -0.243315
 H         0.912789         1.758368         1.992802
 H         0.230623         0.879774        -0.821118
 H         0.021194        -1.005546        -0.943825
 H        -0.803367         0.040655         0.142593
 H         1.330110        -1.881551         1.889563
