19
Iteration:  2788
 C         3.911702         1.667255         2.581973
 C         3.058034         0.928354         1.714362
 O         3.365869        -0.454842         1.436738
 C         2.558896        -0.383883         0.224520
 C         2.655705         1.282450         0.319458
 C         1.579906         1.076084         1.474616
 C         1.190790        -0.244542         0.840484
 C         0.035023        -0.075204        -0.260385
 O         0.707605        -1.307256         1.631005
 H         3.814223         1.600033         3.655817
 H         4.925371         1.188571         2.488420
 H         3.742812         2.693823         2.295442
 H         2.858230        -0.955197        -0.617250
 H         2.698496         2.193890        -0.311671
 H         0.911020         1.882135         1.990623
 H        -0.085565         0.756315        -1.100527
 H        -0.056549        -1.041900        -0.738035
 H        -0.855610         0.128831         0.219242
 H         1.406131        -1.527879         2.380388
