19
Iteration:  3213
 C         3.979073         1.781536         2.518195
 C         3.055450         0.878407         1.760790
 O         3.422512        -0.464755         1.479374
 C         2.566761        -0.328128         0.326197
 C         2.631555         1.231428         0.370579
 C         1.521678         1.083171         1.434818
 C         1.109649        -0.260984         0.831001
 C         0.103887         0.031149        -0.262230
 O         0.650888        -1.471347         1.567702
 H         4.068738         1.608592         3.537397
 H         4.878822         1.670604         1.896049
 H         3.632577         2.849387         2.468934
 H         2.829420        -1.010911        -0.519797
 H         2.785081         2.019175        -0.267805
 H         0.746989         1.839402         1.812320
 H         0.388692         0.803940        -0.985472
 H        -0.121465        -0.959630        -0.609018
 H        -0.963668         0.424752         0.055661
 H         1.376741        -1.543504         2.197433
