19
Iteration:  3186charge 0 multiplicity 1
 C         4.052035         1.852919         2.566055
 C         3.137331         0.946711         1.669956
 O         3.319311        -0.430023         1.549524
 C         2.600673        -0.389129         0.285038
 C         2.604820         1.172989         0.387417
 C         1.571924         1.039073         1.507224
 C         1.135493        -0.280785         0.765284
 C         0.023483        -0.030832        -0.225619
 O         0.653756        -1.400138         1.506101
 H         3.779636         1.690016         3.711126
 H         5.084339         1.580557         2.273297
 H         3.858334         2.895453         2.353097
 H         2.815935        -1.076549        -0.525735
 H         2.595840         2.147264        -0.287936
 H         0.892476         1.747391         1.854909
 H         0.090969         0.915362        -0.892618
 H        -0.202313        -0.855800        -0.977600
 H        -1.005408         0.119777         0.426880
 H         1.425509        -1.884601         1.800510
