19
Iteration:  1912
 C         3.859648         1.502138         2.779817
 C         3.046244         0.940122         1.660417
 O         3.340629        -0.518165         1.360591
 C         2.494748        -0.291462         0.120851
 C         2.686329         1.301847         0.273512
 C         1.593141         1.186814         1.345768
 C         1.041488        -0.210603         0.808795
 C        -0.006736        -0.207519        -0.235121
 O         0.905729        -1.186645         1.791527
 H         3.725460         0.763074         3.592760
 H         4.999047         1.601984         2.619404
 H         3.299977         2.422147         3.156899
 H         2.622324        -0.957172        -0.691170
 H         3.069173         2.094785        -0.394774
 H         1.129909         2.148975         1.786234
 H         0.401994         0.324106        -1.229441
 H        -0.287966        -1.299282        -0.382901
 H        -0.926856         0.438144         0.031977
 H         1.860511        -1.179810         2.114191
