19
Iteration:  4811
 C         3.806386         1.653808         2.787361
 C         3.111835         0.902139         1.634824
 O         3.267387        -0.546670         1.521587
 C         2.573998        -0.393608         0.227938
 C         2.852196         1.137577         0.239191
 C         1.629136         1.154248         1.282273
 C         1.121750        -0.143528         0.671773
 C         0.032090        -0.316198        -0.291492
 O         0.697573        -0.995388         1.785560
 H         4.049358         1.063790         3.736190
 H         4.783408         2.102606         2.449379
 H         3.104295         2.534052         3.095105
 H         2.777028        -1.151639        -0.541169
 H         3.077319         2.031174        -0.404385
 H         1.026713         1.972628         1.529670
 H         0.180262         0.338199        -1.225732
 H        -0.040676        -1.346077        -0.709985
 H        -0.988193        -0.250862         0.189157
 H         1.475051        -0.816583         2.433206
