19
Iteration:  1913
 C         3.858419         1.499423         2.784583
 C         3.049270         0.941639         1.661361
 O         3.336711        -0.513125         1.351480
 C         2.491222        -0.292685         0.119339
 C         2.693148         1.298009         0.273706
 C         1.596128         1.201859         1.338544
 C         1.039602        -0.213679         0.804213
 C        -0.006135        -0.210138        -0.235566
 O         0.906474        -1.191223         1.800791
 H         3.695999         0.755472         3.583508
 H         4.974148         1.587140         2.634248
 H         3.291236         2.417536         3.188786
 H         2.635825        -0.949820        -0.696126
 H         3.048911         2.086473        -0.382399
 H         1.128759         2.137467         1.768689
 H         0.412731         0.294923        -1.200357
 H        -0.288654        -1.262895        -0.387247
 H        -0.928778         0.445765         0.050808
 H         1.892839        -1.199278         2.134462
