19
Iteration:   676
 C         3.994768         1.603885         2.706219
 C         3.094240         0.944487         1.669000
 O         3.281024        -0.483317         1.449838
 C         2.544759        -0.279354         0.172963
 C         2.673726         1.220829         0.278971
 C         1.603935         1.181533         1.340189
 C         1.069341        -0.234963         0.785126
 C        -0.062481        -0.164656        -0.258057
 O         0.796112        -1.231947         1.775152
 H         3.836823         0.988939         3.638800
 H         4.999566         1.505405         2.282526
 H         3.768854         2.612045         2.798634
 H         2.982493        -1.039700        -0.572978
 H         2.960081         1.934696        -0.477128
 H         1.035744         1.821864         1.865642
 H        -1.041656        -0.365696         0.216321
 H        -0.006904         0.843021        -0.787798
 H        -0.042541        -0.960635        -0.888548
 H         1.663166        -1.417904         2.081496
