19
Iteration:  3516charge 0 multiplicity 1
 C         3.626155         1.488824         2.842787
 C         3.035255         0.840736         1.632354
 O         3.454478        -0.490994         1.322409
 C         2.595142        -0.325349         0.231805
 C         2.736177         1.297111         0.210281
 C         1.567833         1.183917         1.248086
 C         1.087168        -0.149445         0.822279
 C        -0.085351        -0.207584        -0.175124
 O         0.984694        -1.151873         1.746907
 H         3.106624         1.199352         3.669831
 H         4.679761         1.417154         2.769688
 H         3.322946         2.537183         2.848897
 H         2.917031        -0.971471        -0.621873
 H         3.033805         2.127854        -0.569572
 H         1.156766         2.001925         1.787076
 H        -0.131028         0.554446        -0.836124
 H        -0.158120        -1.151894        -0.675647
 H        -1.077826        -0.217893         0.513214
 H         1.800004        -1.013235         2.335775
