19
Iteration:  3251charge 0 multiplicity 1
 C         3.865702         1.647655         2.724979
 C         3.117878         0.957718         1.661673
 O         3.386250        -0.462407         1.366628
 C         2.597164        -0.266091         0.158231
 C         2.625003         1.244886         0.289656
 C         1.609199         1.009784         1.425611
 C         1.111126        -0.188341         0.809104
 C         0.089427        -0.116204        -0.309992
 O         0.648537        -1.293838         1.796014
 H         4.030076         0.990481         3.663453
 H         4.864518         1.912849         2.366955
 H         3.365973         2.585297         2.904882
 H         2.816690        -0.867251        -0.715279
 H         2.602448         2.088376        -0.502032
 H         1.003809         1.683689         1.995397
 H         0.485659         0.210906        -1.310474
 H        -0.078238        -1.169711        -0.641443
 H        -0.800102         0.264300         0.065317
 H         1.378657        -1.336684         2.547107
