19
Iteration:  3019charge 0 multiplicity 1
 C         3.859710         1.749725         2.659600
 C         3.053601         0.930329         1.672431
 O         3.361401        -0.520497         1.398236
 C         2.527109        -0.346753         0.132803
 C         2.637545         1.218635         0.300100
 C         1.615987         1.025390         1.497896
 C         1.136927        -0.236419         0.820103
 C         0.085445        -0.061925        -0.177232
 O         0.758814        -1.256473         1.648576
 H         3.715149         1.179716         3.601857
 H         4.922408         1.587478         2.400798
 H         3.397148         2.783929         2.802733
 H         2.676930        -1.054497        -0.716938
 H         2.818461         1.993948        -0.484811
 H         0.888242         1.658237         2.082912
 H         0.348273         0.785572        -0.963503
 H         0.128393        -0.938709        -0.849571
 H        -0.822659         0.057447         0.286679
 H         1.422905        -1.237650         2.307345
