19
Iteration:  3625charge 0 multiplicity 1
 C         3.902369         1.770785         2.547163
 C         3.036869         0.929229         1.726815
 O         3.545159        -0.412223         1.440128
 C         2.583703        -0.346701         0.293521
 C         2.595641         1.209757         0.349991
 C         1.537194         1.063875         1.525310
 C         1.126354        -0.231785         0.849663
 C         0.075101        -0.100892        -0.274352
 O         0.612479        -1.360146         1.579611
 H         3.546365         1.924359         3.492710
 H         4.873791         1.338715         2.733077
 H         4.086555         2.706785         2.001160
 H         2.774772        -0.891112        -0.655736
 H         2.816983         1.885921        -0.453099
 H         0.909488         1.848444         2.064215
 H         0.225793         0.727279        -0.878506
 H         0.066893        -0.910588        -0.982139
 H        -1.010402        -0.092472         0.295786
 H         1.315132        -1.977045         1.940308
