19
Iteration:  3412charge 0 multiplicity 1
 C         4.043175         1.842147         2.556929
 C         3.177963         1.005977         1.731912
 O         3.465013        -0.445001         1.459034
 C         2.505895        -0.288773         0.311249
 C         2.509584         1.201216         0.415817
 C         1.459810         0.952601         1.558122
 C         1.041171        -0.312078         0.808696
 C         0.109544        -0.038909        -0.429734
 O         0.622471        -1.412634         1.644961
 H         4.339284         1.258816         3.458470
 H         5.089432         1.910976         2.241239
 H         3.599213         2.807508         2.629745
 H         2.809255        -0.912975        -0.498878
 H         2.678597         1.952094        -0.367223
 H         0.808147         1.737588         1.948772
 H         0.848309         0.468540        -1.239398
 H        -0.100886        -1.038485        -0.932626
 H        -0.714258         0.562066        -0.233702
 H         1.482093        -1.641632         1.989916
