19
Iteration:  2193
 C         3.779595         1.425962         2.846139
 C         3.097818         0.877841         1.639336
 O         3.400278        -0.526293         1.345580
 C         2.562225        -0.305922         0.130418
 C         2.696300         1.327654         0.323464
 C         1.540545         1.240005         1.257325
 C         1.068945        -0.135567         0.674544
 C        -0.069271        -0.333407        -0.216087
 O         0.910187        -1.018478         1.849838
 H         3.153421         1.308759         3.650106
 H         4.703180         0.856300         2.948244
 H         3.979995         2.512211         2.910266
 H         2.902324        -0.918404        -0.682166
 H         3.156340         2.091927        -0.433039
 H         0.884812         1.987877         1.675104
 H        -0.305853         0.351386        -1.113590
 H        -0.105585        -1.372087        -0.434839
 H        -0.800004        -0.317955         0.461475
 H         1.768557        -1.196646         2.112768
