19
Iteration:  2860charge 0 multiplicity 1
 C         3.717056         1.372142         2.902211
 C         3.093726         0.983199         1.632277
 O         3.424648        -0.529776         1.279082
 C         2.611091        -0.207826         0.109241
 C         2.698435         1.285093         0.189200
 C         1.577292         1.238884         1.158947
 C         1.167809        -0.170349         0.772864
 C        -0.038060        -0.256242        -0.110319
 O         0.817775        -1.156621         1.886657
 H         3.642046         0.594664         3.730354
 H         4.792180         1.584447         2.936588
 H         3.161369         2.220228         3.289413
 H         2.984296        -0.801321        -0.757275
 H         2.891120         1.952487        -0.735560
 H         0.880871         2.141993         1.511012
 H        -0.091121         0.284060        -0.990731
 H        -0.096095        -1.322065        -0.452301
 H        -1.043525         0.127010         0.455987
 H         1.494492        -0.997608         2.586496
