19
Iteration:  3885
 C         3.965403         1.789272         2.621606
 C         3.092661         0.978700         1.694559
 O         3.396127        -0.438004         1.390968
 C         2.556564        -0.342778         0.281329
 C         2.546567         1.240513         0.408671
 C         1.495405         1.064191         1.507282
 C         1.097000        -0.327958         0.838350
 C         0.168139        -0.054623        -0.407080
 O         0.687357        -1.422604         1.707358
 H         4.061711         1.224106         3.474286
 H         4.881154         1.939065         2.052215
 H         3.489278         2.751106         2.632213
 H         2.678925        -0.950098        -0.638639
 H         2.820311         2.027003        -0.392403
 H         0.788942         1.808719         1.866084
 H         0.642801         0.493120        -1.124070
 H        -0.089625        -0.978866        -0.871143
 H        -0.823309         0.400807        -0.054001
 H         1.563594        -1.386174         2.240342
