19
Iteration:  1874
 C         4.051128         1.746985         2.589499
 C         3.069465         0.911496         1.773595
 O         3.397450        -0.519010         1.417425
 C         2.584821        -0.263030         0.206380
 C         2.666122         1.273637         0.399850
 C         1.536238         1.038229         1.441798
 C         1.084276        -0.282823         0.814615
 C         0.011247        -0.078913        -0.268723
 O         0.605430        -1.341925         1.628416
 H         4.245148         1.514676         3.646565
 H         4.933134         1.784657         2.009978
 H         3.762481         2.765980         2.612165
 H         2.817766        -0.985436        -0.656190
 H         3.020372         2.155639        -0.058398
 H         1.055554         1.900113         1.693114
 H         0.267323         0.724641        -0.863219
 H        -0.145833        -0.914485        -0.972084
 H        -0.921355         0.038551         0.216833
 H         1.286769        -1.629676         2.242704
