19
Iteration:   644
 C         3.726398         1.515526         2.757588
 C         3.126968         0.856119         1.681085
 O         3.416774        -0.553081         1.215863
 C         2.496180        -0.307398         0.133873
 C         2.731086         1.261262         0.334705
 C         1.587358         1.191106         1.265653
 C         1.160253        -0.136564         0.792162
 C        -0.050108        -0.269858        -0.190849
 O         0.844443        -1.043274         1.871002
 H         3.302266         0.968656         3.715596
 H         4.842957         1.554320         2.719083
 H         3.389808         2.490974         2.893019
 H         2.676732        -1.066567        -0.730785
 H         3.055423         1.960375        -0.416534
 H         1.096811         1.848277         1.803353
 H        -0.922103         0.145865         0.575324
 H         0.027323         0.555876        -1.100766
 H        -0.228947        -1.244020        -0.592288
 H         1.663484        -1.253949         2.532496
