19
Iteration:  1748
 C         3.850768         1.411593         2.882769
 C         3.055449         0.948152         1.624593
 O         3.282554        -0.465979         1.322268
 C         2.539383        -0.222539         0.166433
 C         2.750849         1.293545         0.225038
 C         1.556207         1.227852         1.188284
 C         1.037778        -0.141894         0.836532
 C        -0.036065        -0.251833        -0.204922
 O         0.909899        -1.220837         1.844501
 H         3.930576         0.617678         3.656304
 H         4.986891         1.298305         2.659993
 H         3.523657         2.331975         3.343239
 H         2.667848        -0.889409        -0.703982
 H         3.013263         2.098534        -0.373469
 H         1.101901         2.148007         1.602766
 H         0.236987         0.436085        -1.133678
 H        -0.106615        -1.240059        -0.453534
 H        -0.970829         0.147765         0.151591
 H         1.894769        -1.396372         2.042153
