19
Iteration:  1323
 C         3.842538         1.480464         2.781187
 C         3.070073         0.950503         1.616029
 O         3.441100        -0.449267         1.350460
 C         2.533717        -0.375005         0.198876
 C         2.708821         1.235104         0.214423
 C         1.563508         1.172493         1.246284
 C         1.110484        -0.171631         0.813484
 C        -0.048353        -0.119376        -0.181877
 O         0.765158        -1.175174         1.843642
 H         3.651618         0.758808         3.577284
 H         4.952531         1.380728         2.585138
 H         3.779063         2.474597         3.196273
 H         2.924721        -1.037564        -0.603730
 H         2.800585         1.937630        -0.644361
 H         1.092292         2.142381         1.743363
 H        -0.930435         0.478412         0.082071
 H         0.338425         0.019687        -1.112337
 H        -0.501382        -1.048444        -0.191233
 H         1.637087        -1.443696         2.086366
