19
Iteration:  4338
 C         3.816172         1.778560         2.671139
 C         3.059028         0.925074         1.655850
 O         3.453853        -0.445987         1.480139
 C         2.638807        -0.348006         0.285368
 C         2.517567         1.196668         0.289595
 C         1.576777         1.022545         1.382928
 C         1.158865        -0.253554         0.794589
 C         0.056707        -0.049675        -0.278983
 O         0.788484        -1.343153         1.636171
 H         3.149470         2.070694         3.533737
 H         4.674443         1.225983         3.116516
 H         4.168962         2.732164         2.299394
 H         2.809648        -1.050614        -0.536689
 H         2.660210         1.906551        -0.524037
 H         0.966276         1.700454         2.040798
 H        -0.138766         0.910032        -0.986414
 H        -0.055172        -0.946541        -0.974663
 H        -0.908292         0.002524         0.208205
 H         1.331038        -1.454807         2.441249
