19
Iteration:   280
 C         4.129156         1.707042         2.541703
 C         3.055464         1.006748         1.759687
 O         3.355390        -0.417676         1.536653
 C         2.521502        -0.377531         0.283122
 C         2.591109         1.151999         0.236799
 C         1.546509         1.071048         1.382308
 C         1.085274        -0.267446         0.804688
 C         0.031604         0.009084        -0.146718
 O         0.652327        -1.381299         1.573347
 H         4.448542         1.160359         3.529762
 H         5.136198         1.766621         2.053394
 H         3.779315         2.782694         2.790430
 H         2.943982        -1.056617        -0.483143
 H         2.799708         1.954806        -0.529833
 H         0.919215         1.781066         1.689167
 H        -0.795352        -0.523248         0.164064
 H        -0.212827         1.030398        -0.300389
 H         0.283168        -0.507734        -1.108579
 H         1.451190        -1.485282         2.185249
