19
Iteration:  4235
 C         3.930977         1.656134         2.794427
 C         3.086983         0.963876         1.709468
 O         3.360104        -0.370736         1.383921
 C         2.589544        -0.270162         0.154628
 C         2.607909         1.308290         0.344664
 C         1.485597         1.098437         1.395207
 C         1.026043        -0.241492         0.765959
 C         0.031427        -0.311759        -0.320813
 O         0.837990        -1.286135         1.737682
 H         3.376956         1.780264         3.719000
 H         4.758428         0.918486         2.935644
 H         4.393427         2.593067         2.349902
 H         3.001787        -0.953561        -0.605240
 H         2.976125         2.159983        -0.195329
 H         0.702352         1.805886         1.685255
 H         0.315360         0.225838        -1.192274
 H        -0.132318        -1.331751        -0.626034
 H        -1.001500         0.091615        -0.078950
 H         1.749305        -1.479174         2.029072
