19
Iteration:  4708
 C         3.861536         1.873835         2.655721
 C         3.089750         0.926068         1.755436
 O         3.557427        -0.552573         1.400211
 C         2.575581        -0.404095         0.280593
 C         2.652562         1.160382         0.367000
 C         1.616118         1.084481         1.372109
 C         1.043320        -0.269940         0.863893
 C         0.194568        -0.157668        -0.442737
 O         0.439206        -1.202002         1.754641
 H         3.337775         2.667994         3.156705
 H         4.447392         1.347997         3.415789
 H         4.636360         2.283377         2.085640
 H         2.907793        -0.886036        -0.635795
 H         3.024264         1.786892        -0.408130
 H         0.982380         1.924838         1.765564
 H         0.480874         0.514165        -1.262287
 H        -0.073632        -1.173548        -0.951946
 H        -0.757392         0.329388        -0.135694
 H         1.075578        -1.549596         2.362423
