19
Iteration:  2803
 C         3.920089         1.647117         2.695257
 C         3.056573         0.882772         1.698014
 O         3.326181        -0.527494         1.363875
 C         2.520960        -0.242316         0.166391
 C         2.663948         1.253089         0.320110
 C         1.537189         1.126585         1.372078
 C         1.070091        -0.212397         0.793993
 C         0.061129        -0.172663        -0.208472
 O         0.808473        -1.263210         1.726151
 H         3.595220         1.466439         3.754060
 H         4.962471         1.430522         2.530413
 H         3.892226         2.791386         2.596562
 H         2.762009        -1.019481        -0.617993
 H         3.078538         2.050931        -0.256380
 H         0.992241         1.869922         1.831465
 H         0.460205         0.657474        -0.880145
 H         0.033180        -1.061738        -0.944936
 H        -0.989891        -0.006820         0.241962
 H         1.508746        -1.183361         2.340771
