19
Iteration:  1307
 C         3.786566         1.414345         2.849975
 C         3.124038         0.932781         1.601792
 O         3.405033        -0.459858         1.291608
 C         2.569276        -0.322402         0.103351
 C         2.658165         1.254976         0.152512
 C         1.647440         1.131279         1.311910
 C         1.119985        -0.218373         0.815629
 C        -0.036108        -0.232129        -0.153304
 O         0.787194        -1.010387         1.866624
 H         3.299920         0.953853         3.745853
 H         4.855492         1.233552         2.929726
 H         3.593977         2.528477         2.872950
 H         2.705585        -1.091313        -0.648028
 H         2.989425         2.093343        -0.422805
 H         1.024577         1.810081         1.785221
 H        -0.864960         0.454655         0.221658
 H         0.233346         0.259070        -1.193813
 H        -0.497781        -1.322245        -0.273669
 H         1.572195        -1.177441         2.349051
