19
Iteration:  2597
 C         3.653331         1.555547         2.819478
 C         3.156556         0.829372         1.658375
 O         3.411929        -0.520618         1.292040
 C         2.562190        -0.264099         0.123209
 C         2.630423         1.225822         0.279659
 C         1.607834         1.125569         1.337444
 C         1.145031        -0.169545         0.785154
 C        -0.051329        -0.129561        -0.154975
 O         0.899342        -1.186056         1.745825
 H         3.173648         1.490557         3.819713
 H         4.703815         1.278321         3.011108
 H         3.482442         2.682673         2.599662
 H         2.865675        -0.779974        -0.842672
 H         3.013533         2.033922        -0.431853
 H         0.965896         1.891326         1.791966
 H         0.101332         0.501327        -1.000783
 H        -0.127450        -1.186836        -0.508190
 H        -0.923047         0.201337         0.479098
 H         1.736349        -1.151372         2.374950
