19
Iteration:  1647
 C         3.954713         1.670968         2.582018
 C         3.053608         0.938112         1.721061
 O         3.347338        -0.440471         1.470022
 C         2.517446        -0.311327         0.189327
 C         2.595752         1.219755         0.330163
 C         1.585788         1.096683         1.516054
 C         1.093603        -0.270967         0.801423
 C         0.044145         0.037327        -0.233138
 O         0.770489        -1.423519         1.601287
 H         3.747105         1.405011         3.651723
 H         4.991630         1.382764         2.255864
 H         4.035014         2.760113         2.425868
 H         2.978200        -0.964223        -0.583340
 H         2.955901         2.085716        -0.311403
 H         0.858259         1.697910         1.878028
 H         0.223203         0.825025        -0.944456
 H        -0.294801        -0.983855        -0.558410
 H        -0.834227         0.357532         0.344594
 H         1.722132        -1.579520         1.905792
