19
Iteration:  1000
 C         3.912200         1.607396         2.690452
 C         3.095911         0.932791         1.645529
 O         3.395657        -0.464862         1.361227
 C         2.516983        -0.418132         0.263518
 C         2.586834         1.199996         0.231872
 C         1.587322         1.125530         1.380437
 C         1.134580        -0.227609         0.846701
 C         0.067551        -0.029748        -0.244567
 O         0.698022        -1.235354         1.753330
 H         3.824778         1.054308         3.674784
 H         5.082615         1.703556         2.452738
 H         3.580977         2.645024         2.766630
 H         2.914813        -1.182840        -0.498769
 H         2.931017         1.941417        -0.425832
 H         0.921612         2.028351         1.587195
 H        -0.889134         0.364152         0.001279
 H         0.609696         0.515846        -1.094068
 H        -0.205601        -1.126093        -0.583373
 H         1.323744        -1.288941         2.604982
