19
Iteration:  1121charge 0 multiplicity 1
 C         3.969552         1.667708         2.688614
 C         3.101049         0.965500         1.614329
 O         3.394272        -0.407021         1.396698
 C         2.571407        -0.380043         0.236078
 C         2.641392         1.184770         0.280599
 C         1.613974         1.052643         1.380278
 C         1.098735        -0.243210         0.871235
 C         0.011011        -0.082159        -0.270885
 O         0.646867        -1.274639         1.698832
 H         3.757176         1.079079         3.632554
 H         5.071177         1.383575         2.592401
 H         3.809023         2.752700         2.759540
 H         2.984793        -1.002962        -0.651139
 H         2.759352         2.015847        -0.455389
 H         1.143449         1.884134         1.890831
 H        -0.927575         0.371078         0.096806
 H         0.372106         0.526056        -1.162742
 H        -0.327237        -1.139405        -0.414772
 H         1.026252        -1.211802         2.662682
