19
Iteration:   666
 C         3.926385         1.566871         2.716897
 C         3.046571         0.861403         1.715554
 O         3.337645        -0.528113         1.410043
 C         2.600750        -0.271012         0.096800
 C         2.694905         1.266238         0.181705
 C         1.590485         1.128719         1.335573
 C         1.044482        -0.147101         0.859262
 C        -0.088054        -0.241926        -0.205561
 O         0.827158        -1.129505         1.794307
 H         3.721963         1.131678         3.773678
 H         5.000907         1.602565         2.567469
 H         3.575640         2.549036         2.857387
 H         2.812868        -0.977199        -0.775518
 H         3.133993         2.031852        -0.452886
 H         1.049062         1.807784         1.855573
 H        -1.175385        -0.157982         0.157557
 H         0.091266         0.741060        -0.851341
 H         0.124507        -1.008465        -0.884938
 H         1.653785        -1.419612         2.168293
