19
Iteration:   745
 C         3.962780         1.897942         2.536536
 C         3.136107         0.833234         1.742256
 O         3.490676        -0.507784         1.377698
 C         2.533297        -0.466285         0.264149
 C         2.604276         1.167667         0.437683
 C         1.588321         0.983126         1.480290
 C         1.096525        -0.261157         0.854393
 C         0.086803         0.081997        -0.286228
 O         0.541642        -1.296878         1.631690
 H         3.960370         1.753007         3.639666
 H         4.945190         1.899210         2.116717
 H         3.559774         2.946602         2.263181
 H         2.791973        -0.965594        -0.630225
 H         2.696726         1.962048        -0.313449
 H         0.989042         1.822048         2.036327
 H        -0.949686         0.423261         0.012775
 H         0.649278         0.623204        -1.068048
 H        -0.207357        -0.934459        -0.546734
 H         1.361420        -1.768355         2.081155
