19
Iteration:  3361charge 0 multiplicity 1
 C         3.876287         1.742030         2.780912
 C         3.139814         0.955346         1.670425
 O         3.400682        -0.470014         1.417880
 C         2.605363        -0.305328         0.162580
 C         2.679484         1.254997         0.279647
 C         1.571802         1.074245         1.376109
 C         1.120810        -0.247465         0.695940
 C        -0.071846        -0.158638        -0.237458
 O         0.735917        -1.349546         1.703834
 H         3.416390         1.502299         3.754065
 H         4.926509         1.519906         2.971460
 H         3.715317         2.805891         2.542850
 H         3.003253        -0.926875        -0.658257
 H         2.892170         2.001287        -0.365906
 H         0.827141         1.563838         2.100024
 H         0.036301         0.782092        -0.870921
 H        -0.324435        -1.127242        -0.746890
 H        -0.893797         0.239667         0.359523
 H         1.572109        -1.300782         2.308264
