19
Iteration:  3874charge 0 multiplicity 1
 C         3.953199         1.798353         2.517021
 C         3.034918         0.955918         1.730101
 O         3.469059        -0.408506         1.491539
 C         2.488398        -0.333615         0.297908
 C         2.581027         1.191749         0.332877
 C         1.513986         0.988827         1.535655
 C         1.069909        -0.271150         0.807071
 C         0.122310        -0.072202        -0.341277
 O         0.726718        -1.383949         1.596430
 H         3.952107         1.427472         3.507246
 H         5.010289         1.772793         2.304359
 H         3.633767         2.783718         2.797876
 H         2.866848        -1.071346        -0.439726
 H         2.643684         2.049363        -0.436946
 H         0.888042         1.774981         1.984759
 H         0.595859         0.623551        -0.916410
 H        -0.128406        -0.956270        -0.865993
 H        -0.793802         0.521828        -0.007230
 H         1.445540        -1.613385         2.200223
