19
Iteration:  1982charge 0 multiplicity 1
 C         3.724538         1.582521         2.880690
 C         3.086002         0.835447         1.672911
 O         3.426734        -0.552261         1.248772
 C         2.535871        -0.235721         0.032714
 C         2.781963         1.277845         0.254719
 C         1.652162         1.182902         1.218733
 C         1.098478        -0.217603         0.780362
 C        -0.125416        -0.218209        -0.076930
 O         0.848574        -1.167307         1.825458
 H         3.144764         1.135290         3.743455
 H         4.749495         1.395187         3.031308
 H         3.433607         2.615246         2.903232
 H         2.998129        -0.822753        -0.843793
 H         3.156922         2.219827        -0.226529
 H         1.139401         1.921435         1.800466
 H        -0.026797         0.606391        -0.668650
 H        -0.169459        -1.062698        -0.737598
 H        -1.124700        -0.109470         0.420009
 H         1.671092        -1.138581         2.308467
