19
Iteration:  2422
 C         3.682450         1.474947         2.827423
 C         3.052143         0.925533         1.652627
 O         3.326705        -0.557814         1.436291
 C         2.593808        -0.257037         0.134904
 C         2.721495         1.265597         0.175765
 C         1.580564         1.248455         1.272229
 C         1.133772        -0.162684         0.775052
 C        -0.100200        -0.184647        -0.136674
 O         1.016525        -1.211436         1.722124
 H         3.020901         1.275287         3.631583
 H         4.679346         1.179837         3.103505
 H         3.790069         2.591545         2.659682
 H         2.765492        -0.866117        -0.749336
 H         3.008818         2.080276        -0.410044
 H         1.047677         2.096726         1.855908
 H         0.047265         0.359262        -1.137460
 H        -0.409492        -1.239561        -0.187923
 H        -0.942019         0.167577         0.388249
 H         1.953525        -1.323466         1.977162
