19
Iteration:  3148charge 0 multiplicity 1
 C         3.838850         1.658045         2.657599
 C         3.122750         0.890147         1.654929
 O         3.381958        -0.465279         1.357816
 C         2.542056        -0.340091         0.198927
 C         2.672703         1.268975         0.314964
 C         1.530935         1.128531         1.399941
 C         1.138611        -0.279301         0.827821
 C         0.056841        -0.071702        -0.242536
 O         0.728107        -1.322045         1.741967
 H         3.470968         1.409247         3.617396
 H         4.915767         1.436719         2.672362
 H         3.795562         2.769093         2.564204
 H         2.979961        -0.941144        -0.628160
 H         3.033396         2.063091        -0.281902
 H         0.914234         1.996070         1.810681
 H         0.088601         0.973390        -0.699790
 H         0.093051        -0.914298        -0.938782
 H        -0.876868        -0.122507         0.255800
 H         1.403494        -1.399352         2.375626
