19
Iteration:   268
 C         4.094394         1.735648         2.559114
 C         3.081198         0.950351         1.654446
 O         3.392596        -0.482955         1.529941
 C         2.601941        -0.410919         0.259824
 C         2.520619         1.139200         0.317080
 C         1.536499         1.117297         1.470656
 C         1.130082        -0.258149         0.827094
 C        -0.017982         0.004363        -0.251095
 O         0.680923        -1.301010         1.613255
 H         4.085173         1.237344         3.560617
 H         5.109150         1.686413         1.987623
 H         3.762397         2.826811         2.758643
 H         2.881017        -1.203128        -0.506005
 H         2.540087         1.948376        -0.436979
 H         0.965037         1.947984         1.665192
 H        -0.784662        -0.637904         0.080159
 H        -0.383680         1.033758        -0.256001
 H         0.233500        -0.228259        -1.293706
 H         1.465871        -1.670692         2.195258
