19
Iteration:  1553
 C         3.828695         1.613327         2.742133
 C         3.053289         0.885332         1.620327
 O         3.493818        -0.497397         1.314405
 C         2.543615        -0.384054         0.187267
 C         2.669027         1.206489         0.232419
 C         1.553600         1.052605         1.415722
 C         1.105817        -0.213530         0.787658
 C         0.043860        -0.014574        -0.245481
 O         0.724975        -1.212825         1.832917
 H         3.800107         0.897723         3.528499
 H         4.852450         1.937935         2.472051
 H         3.423865         2.511370         3.054135
 H         2.951400        -0.955153        -0.711130
 H         2.723948         2.079291        -0.510146
 H         1.052465         1.765350         2.005634
 H        -0.700066         0.794268         0.060520
 H         0.459531         0.160496        -1.166464
 H        -0.606662        -0.843494        -0.343658
 H         1.384535        -1.002402         2.456602
