19
Iteration:  4695charge 0 multiplicity 1
 C         3.880949         1.741915         2.675961
 C         3.148512         0.920711         1.636738
 O         3.460135        -0.491594         1.463768
 C         2.615211        -0.352538         0.280722
 C         2.631691         1.166103         0.286811
 C         1.524178         1.054839         1.416466
 C         1.130428        -0.291167         0.787658
 C         0.162748        -0.175434        -0.380950
 O         0.511153        -1.125201         1.758279
 H         3.083171         2.466166         2.904044
 H         3.960647         1.171841         3.533331
 H         4.786246         2.215816         2.424374
 H         2.822324        -1.057574        -0.531332
 H         2.777100         1.949152        -0.514298
 H         1.010793         1.875950         1.897209
 H         0.787677         0.483902        -1.118346
 H         0.089369        -1.182532        -0.812360
 H        -0.807132         0.167938        -0.127730
 H         1.235175        -1.261070         2.441623
