19
Iteration:  2139
 C         3.790980         1.547196         2.783726
 C         3.102036         0.930126         1.684477
 O         3.403175        -0.456032         1.412093
 C         2.558703        -0.367771         0.244402
 C         2.679224         1.252803         0.196823
 C         1.605247         1.110004         1.268777
 C         1.078988        -0.217461         0.806968
 C        -0.073662        -0.142282        -0.209255
 O         0.855041        -1.156330         1.704977
 H         3.579762         0.941093         3.603911
 H         4.894159         1.503539         2.755026
 H         3.507352         2.605966         2.915546
 H         2.826921        -1.040601        -0.542645
 H         2.962640         2.115063        -0.457917
 H         0.928739         1.800417         1.767828
 H         0.115443         0.764857        -0.868706
 H        -0.240047        -1.079307        -0.677846
 H        -0.908969         0.037482         0.338350
 H         1.721721        -1.463461         2.065243
