19
Iteration:  4180
 C         3.623079         1.514857         2.940577
 C         3.021131         0.960106         1.688083
 O         3.401047        -0.449009         1.299892
 C         2.607306        -0.231600         0.093878
 C         2.734831         1.288427         0.178869
 C         1.630844         1.159136         1.232755
 C         1.121723        -0.238116         0.791674
 C        -0.039850        -0.285692        -0.239643
 O         0.939278        -1.179557         1.872315
 H         3.348087         0.844491         3.738792
 H         4.749850         1.440950         2.807822
 H         3.206634         2.561026         3.131485
 H         2.825279        -0.942588        -0.739826
 H         2.852836         2.065009        -0.608068
 H         0.898099         1.900794         1.728384
 H         0.066553         0.451306        -0.997610
 H        -0.243452        -1.271074        -0.627776
 H        -0.982076        -0.060668         0.429133
 H         1.868429        -1.196478         2.230427
