19
Iteration:  2363
 C         3.847697         1.491306         2.772293
 C         3.095253         0.970392         1.609044
 O         3.463814        -0.405742         1.301290
 C         2.549679        -0.305554         0.192625
 C         2.645113         1.283979         0.310865
 C         1.550812         1.078838         1.330600
 C         1.114992        -0.276253         0.794431
 C         0.047354        -0.234950        -0.253131
 O         0.709956        -1.107835         1.793518
 H         3.515746         0.940381         3.728751
 H         4.992202         1.452916         2.656317
 H         3.495480         2.507107         2.972654
 H         2.708451        -1.079468        -0.587111
 H         2.976378         2.159223        -0.321200
 H         1.012574         1.731819         1.966760
 H         0.131119         0.550471        -1.012174
 H         0.049476        -1.205097        -0.777572
 H        -0.858657         0.015344         0.365848
 H         1.401970        -1.206237         2.488563
