19
Iteration:  4543
 C         3.956609         1.737178         2.611617
 C         3.016461         1.027735         1.727438
 O         3.379810        -0.395454         1.465096
 C         2.594684        -0.339708         0.307904
 C         2.651929         1.241938         0.348760
 C         1.546434         1.121989         1.375786
 C         1.068216        -0.338621         0.797428
 C         0.087566        -0.154751        -0.342566
 O         0.652012        -1.393878         1.663669
 H         4.984141         1.167185         2.522688
 H         4.151105         2.778820         2.348126
 H         3.691672         1.780769         3.658830
 H         2.831537        -1.163590        -0.381059
 H         3.065318         2.039106        -0.249783
 H         1.007985         1.864064         1.943746
 H         0.617538         0.496014        -1.149619
 H         0.053827        -1.117225        -0.826902
 H        -0.827822         0.294088        -0.149524
 H         1.256617        -1.327458         2.395494
