19
Iteration:  4377
 C         3.876355         1.553383         2.791253
 C         3.001098         0.941417         1.706682
 O         3.335354        -0.444673         1.422923
 C         2.570277        -0.237278         0.230892
 C         2.651843         1.337476         0.235543
 C         1.458063         1.229989         1.240148
 C         1.117464        -0.229932         0.786913
 C         0.047373        -0.299129        -0.323794
 O         0.888365        -1.258628         1.809917
 H         3.279649         1.313795         3.713130
 H         4.812124         1.032571         2.727541
 H         4.029533         2.665781         2.613030
 H         2.919075        -0.899576        -0.572635
 H         2.990907         2.212787        -0.391835
 H         0.868425         1.909866         1.849193
 H         0.347010         0.078940        -1.249565
 H         0.027355        -1.353203        -0.406470
 H        -0.938408         0.109771         0.044552
 H         1.826565        -1.626529         2.024469
