19
Iteration:   598charge 0 multiplicity 1
 C         3.800802         1.420266         2.869816
 C         3.116353         0.970362         1.574133
 O         3.413860        -0.435918         1.354076
 C         2.525985        -0.343644         0.197608
 C         2.714672         1.251053         0.119144
 C         1.540937         1.192819         1.246510
 C         1.125120        -0.247623         0.779140
 C        -0.080058        -0.159684        -0.105114
 O         0.859408        -1.127928         1.813872
 H         3.263236         0.915180         3.681483
 H         4.933621         1.295462         2.853579
 H         3.599635         2.506817         3.007297
 H         2.752437        -1.155877        -0.562397
 H         2.941025         2.022814        -0.651322
 H         0.887193         1.975835         1.806423
 H        -0.838113         0.599941         0.301726
 H         0.280211         0.161333        -1.139209
 H        -0.514788        -1.155681        -0.257963
 H         1.816999        -1.404552         2.179800
