19
Iteration:  4351
 C         3.847430         1.700870         2.747879
 C         3.016921         1.005673         1.698738
 O         3.398244        -0.421756         1.440699
 C         2.592756        -0.361771         0.202182
 C         2.581231         1.194250         0.200837
 C         1.503801         1.117402         1.433027
 C         1.116872        -0.317283         0.795379
 C         0.046796        -0.101807        -0.281691
 O         0.838526        -1.334389         1.702784
 H         3.258535         1.806679         3.616581
 H         4.738506         1.022244         2.956075
 H         4.235201         2.636152         2.376866
 H         3.076129        -1.010477        -0.545595
 H         2.678694         2.031144        -0.448621
 H         0.851966         1.976004         1.668943
 H         0.573362         0.677859        -0.876234
 H         0.088683        -1.063707        -0.919791
 H        -1.000371         0.100288         0.141816
 H         1.652957        -1.195008         2.265996
