19
Iteration:  3969
 C         3.669499         1.507158         2.800689
 C         2.989418         0.959357         1.668640
 O         3.311491        -0.437571         1.418683
 C         2.607782        -0.294239         0.113323
 C         2.728046         1.273573         0.171462
 C         1.574326         1.200527         1.267568
 C         1.163893        -0.188908         0.725515
 C        -0.028025        -0.215367        -0.123432
 O         1.011305        -1.229707         1.765768
 H         3.345385         0.885669         3.697354
 H         4.747978         1.453575         2.976365
 H         3.247189         2.458770         3.171207
 H         2.769475        -1.128933        -0.571316
 H         3.291144         2.089482        -0.418120
 H         0.795245         1.853888         1.677395
 H        -0.232804         0.705661        -0.801990
 H        -0.191493        -1.135713        -0.709050
 H        -0.945974        -0.312292         0.512835
 H         1.972349        -1.356332         2.107605
