19
Iteration:   281charge 0 multiplicity 1
 C         4.129420         1.709525         2.536769
 C         3.054253         1.008780         1.762737
 O         3.350062        -0.410876         1.533601
 C         2.515692        -0.374915         0.289417
 C         2.604603         1.160771         0.235342
 C         1.555151         1.068344         1.375196
 C         1.085289        -0.271972         0.809097
 C         0.029046         0.006616        -0.140817
 O         0.652361        -1.389445         1.574380
 H         4.485015         1.161355         3.515256
 H         5.094250         1.716180         2.074373
 H         3.757664         2.754216         2.808107
 H         2.917271        -1.024071        -0.473919
 H         2.831732         1.941064        -0.545229
 H         0.892972         1.778334         1.713138
 H        -0.814509        -0.529552         0.161646
 H        -0.155711         1.028328        -0.334654
 H         0.263948        -0.506394        -1.126248
 H         1.411610        -1.468960         2.156408
