19
Iteration:  3328
 C         3.709857         1.532123         2.807341
 C         2.982968         0.910429         1.675344
 O         3.339630        -0.510557         1.388093
 C         2.591676        -0.283892         0.129108
 C         2.797190         1.211927         0.236349
 C         1.560324         1.251895         1.252880
 C         1.102893        -0.129683         0.747651
 C        -0.020445        -0.216396        -0.102584
 O         0.952555        -1.212482         1.764160
 H         3.148724         1.202954         3.702752
 H         4.770650         1.350120         2.718765
 H         3.556819         2.616252         2.822688
 H         2.790288        -0.940740        -0.717820
 H         3.118127         1.971638        -0.420888
 H         0.797369         1.958136         1.741485
 H        -0.076617         0.705125        -0.805101
 H         0.003248        -1.087665        -0.816366
 H        -0.916783        -0.369767         0.472833
 H         1.859900        -1.415900         1.997393
