19
Iteration:  1751charge 0 multiplicity 1
 C         3.877809         1.416709         2.849756
 C         3.051145         0.955832         1.634154
 O         3.282899        -0.486504         1.342144
 C         2.547901        -0.241369         0.137309
 C         2.749322         1.296540         0.242499
 C         1.548332         1.238786         1.207950
 C         1.051500        -0.163535         0.838496
 C        -0.035544        -0.221964        -0.202904
 O         0.896370        -1.219238         1.833244
 H         3.846373         0.714564         3.662411
 H         4.927635         1.375083         2.689026
 H         3.502458         2.357281         3.328945
 H         2.653877        -0.914521        -0.666818
 H         3.023577         2.179571        -0.364217
 H         1.076542         2.257747         1.661099
 H         0.186517         0.365145        -1.123428
 H        -0.019790        -1.267566        -0.565662
 H        -1.059324         0.025851         0.179867
 H         1.919739        -1.432362         1.989992
