19
Iteration:  3508charge 0 multiplicity 1
 C         3.571174         1.501717         2.768950
 C         3.032964         0.859549         1.677636
 O         3.435391        -0.486936         1.346681
 C         2.598230        -0.326937         0.180974
 C         2.694335         1.272192         0.224246
 C         1.587561         1.220050         1.253696
 C         1.127646        -0.143986         0.789860
 C        -0.036115        -0.192321        -0.125694
 O         0.962647        -1.181891         1.766865
 H         3.391055         0.866650         3.736150
 H         4.731052         1.469070         2.732699
 H         3.289696         2.555083         2.809361
 H         2.707611        -0.960647        -0.664425
 H         3.065365         1.894775        -0.554264
 H         1.054859         2.059166         1.766831
 H         0.029391         0.692766        -0.796175
 H         0.028881        -1.047549        -0.804060
 H        -0.935585        -0.204244         0.493035
 H         1.780710        -1.169031         2.310037
