19
Iteration:  4851charge 0 multiplicity 1
 C         3.646086         1.426506         2.865522
 C         3.094258         0.918907         1.591793
 O         3.485918        -0.495947         1.442374
 C         2.650634        -0.426079         0.152347
 C         2.765090         1.177590         0.110578
 C         1.587887         1.167442         1.194352
 C         1.069951        -0.142127         0.821580
 C         0.134422        -0.334601        -0.315969
 O         0.640601        -0.811422         1.976179
 H         3.911887         0.598349         3.394542
 H         4.460737         2.149820         2.830867
 H         2.854322         1.970017         3.315475
 H         2.855991        -1.249018        -0.582827
 H         2.965871         1.958389        -0.708208
 H         1.043396         2.096123         1.397855
 H         0.365229         0.113539        -1.210512
 H         0.028936        -1.499725        -0.524669
 H        -0.885376         0.117876        -0.009699
 H         1.412814        -1.039163         2.449151
