19
Iteration:  3466
 C         3.882362         1.665603         2.722588
 C         3.106508         0.944234         1.723922
 O         3.488513        -0.426735         1.458215
 C         2.554030        -0.331614         0.187895
 C         2.612239         1.209172         0.288958
 C         1.543723         1.132953         1.378209
 C         1.118562        -0.264556         0.789430
 C        -0.070509        -0.137963        -0.304377
 O         0.757361        -1.303442         1.684553
 H         4.138062         0.946448         3.610416
 H         4.767206         2.172702         2.199725
 H         3.317441         2.443166         3.248588
 H         2.907561        -1.017587        -0.548959
 H         2.805589         2.004008        -0.376529
 H         1.037745         1.993564         1.871373
 H         0.128688         0.716989        -1.102465
 H        -0.113444        -1.051099        -0.977556
 H        -0.999875        -0.075776         0.167188
 H         1.530321        -1.331035         2.271496
