19
Iteration:  4559
 C         3.858251         1.639977         2.667211
 C         3.025943         0.958581         1.637170
 O         3.439106        -0.415772         1.464437
 C         2.552446        -0.407956         0.300155
 C         2.551084         1.261452         0.240914
 C         1.513772         1.149160         1.375353
 C         1.157615        -0.253639         0.879504
 C         0.272450        -0.144250        -0.315529
 O         0.661325        -1.282254         1.702870
 H         4.892279         1.338647         2.543307
 H         3.777459         2.785559         2.623713
 H         3.603147         1.273719         3.719808
 H         2.814575        -1.048770        -0.548754
 H         2.543518         2.015080        -0.564986
 H         0.800380         1.975703         1.621373
 H         0.627041         0.517835        -1.038503
 H        -0.124770        -1.081850        -0.775405
 H        -0.703585         0.307872         0.120983
 H         1.397665        -1.619936         2.294241
