19
Iteration:  3757charge 0 multiplicity 1
 C         3.811575         1.466941         2.872311
 C         3.154482         0.954492         1.637293
 O         3.483390        -0.427993         1.334594
 C         2.537894        -0.283063         0.135910
 C         2.623084         1.327022         0.268111
 C         1.526727         1.161369         1.270004
 C         1.077792        -0.217148         0.766594
 C        -0.047151        -0.403965        -0.276655
 O         0.797533        -1.041660         1.841905
 H         3.698040         0.660816         3.574134
 H         4.913375         1.482553         2.767709
 H         3.341520         2.318468         3.325755
 H         2.899505        -1.002205        -0.622989
 H         2.945657         2.137208        -0.486008
 H         0.923210         1.878673         1.844510
 H         0.286118         0.218092        -1.117165
 H        -0.020902        -1.458257        -0.401439
 H        -1.013189         0.075999         0.055181
 H         1.734523        -1.116953         2.235362
