19
Iteration:   126charge 0 multiplicity 1
 C         3.976630         1.731152         2.677391
 C         3.093045         0.826720         1.655352
 O         3.386732        -0.580045         1.370086
 C         2.506676        -0.411064         0.199350
 C         2.706728         1.169271         0.293276
 C         1.629075         1.140967         1.241538
 C         1.088790        -0.193893         0.814594
 C        -0.039317        -0.118122        -0.199439
 O         0.700915        -1.087015         1.839171
 H         3.869985         1.388635         3.714761
 H         5.015403         1.748642         2.383567
 H         3.454789         2.728119         2.691804
 H         2.712825        -1.161584        -0.660027
 H         3.159136         1.912148        -0.323526
 H         0.848032         1.848686         1.742862
 H         0.450586        -0.031725        -1.163739
 H        -0.632377        -1.084100        -0.182276
 H        -0.810427         0.692764        -0.000374
 H         1.404418        -1.374586         2.350801
