19
Iteration:  3009
 C         3.898128         1.749462         2.643085
 C         3.140083         0.877882         1.660847
 O         3.403198        -0.476415         1.395614
 C         2.519194        -0.351601         0.274479
 C         2.575687         1.173956         0.324010
 C         1.544120         1.044255         1.491919
 C         1.152670        -0.248744         0.802746
 C         0.073399        -0.007226        -0.261275
 O         0.714749        -1.309427         1.627320
 H         3.729768         1.461777         3.729596
 H         4.989302         1.830497         2.441819
 H         3.712418         2.872824         2.472820
 H         2.773496        -0.997173        -0.579241
 H         2.544200         2.049868        -0.340344
 H         1.162632         1.796428         2.258607
 H         0.161586         0.977324        -0.919330
 H         0.055469        -0.950688        -0.898691
 H        -0.909141        -0.056808         0.134955
 H         1.466944        -1.539242         2.187534
