19
Iteration:  4579charge 0 multiplicity 1
 C         3.780575         1.663462         2.827918
 C         3.103736         0.995643         1.636451
 O         3.437518        -0.412053         1.395570
 C         2.567250        -0.394475         0.218942
 C         2.603755         1.163857         0.192920
 C         1.597129         1.062059         1.395480
 C         1.107985        -0.274718         0.797170
 C         0.100074        -0.122618        -0.350108
 O         0.704717        -1.163948         1.809993
 H         4.853052         1.867773         2.539405
 H         3.175390         2.649002         3.048215
 H         3.759727         0.813493         3.599845
 H         2.932184        -1.103919        -0.534642
 H         2.898566         1.849467        -0.652918
 H         1.115312         1.877711         1.929296
 H         0.549887         0.428985        -1.090095
 H        -0.033337        -1.199475        -0.727549
 H        -0.952202         0.137764        -0.135975
 H         1.512294        -1.481727         2.199469
