19
Iteration:  2118
 C         3.813050         1.678031         2.678499
 C         3.075938         0.927197         1.691421
 O         3.461864        -0.498085         1.371782
 C         2.640829        -0.329425         0.125094
 C         2.640846         1.149704         0.325250
 C         1.528889         1.071579         1.403125
 C         1.176957        -0.282255         0.814120
 C         0.039126         0.011456        -0.273005
 O         0.688733        -1.287719         1.774099
 H         3.928927         1.190263         3.614192
 H         4.839454         1.966865         2.349233
 H         3.267039         2.663498         2.854912
 H         2.799575        -0.990338        -0.686057
 H         2.815192         1.990587        -0.377393
 H         0.934656         1.852966         1.816759
 H         0.359880         0.863761        -0.968675
 H        -0.351448        -0.860538        -0.734027
 H        -0.838395         0.340106         0.235973
 H         1.266312        -1.433579         2.472538
