19
Iteration:  2664charge 0 multiplicity 1
 C         3.793673         1.415262         2.800831
 C         3.069862         0.957342         1.661080
 O         3.318615        -0.439671         1.369491
 C         2.514135        -0.332717         0.210934
 C         2.645875         1.309242         0.200933
 C         1.611036         1.205935         1.348853
 C         1.124127        -0.154658         0.756651
 C         0.003029        -0.269856        -0.218567
 O         0.905618        -1.115627         1.732330
 H         3.591702         0.773898         3.709195
 H         4.847405         1.397030         2.527042
 H         3.550912         2.450547         3.157911
 H         2.851253        -1.056471        -0.614920
 H         3.075279         2.040062        -0.434557
 H         1.103716         1.951931         1.854189
 H        -0.025673         0.268102        -1.052783
 H         0.048124        -1.300352        -0.642877
 H        -0.977099        -0.199945         0.401742
 H         1.620579        -1.259276         2.417047
