19
Iteration:   837charge 0 multiplicity 1
 C         3.857066         1.454192         2.798858
 C         3.027609         0.911444         1.683417
 O         3.222783        -0.548068         1.426659
 C         2.527720        -0.319943         0.113480
 C         2.744378         1.288432         0.238315
 C         1.610717         1.273480         1.237485
 C         1.162516        -0.133099         0.755953
 C        -0.056752        -0.293272        -0.162511
 O         0.900495        -1.089550         1.785627
 H         3.688639         0.972701         3.749929
 H         4.948439         1.538032         2.467646
 H         3.697100         2.482659         2.964485
 H         2.815879        -1.017524        -0.767566
 H         3.171897         1.944381        -0.576411
 H         1.099137         2.062162         1.634984
 H        -0.941432        -0.367746         0.367287
 H        -0.017882         0.555616        -0.849411
 H        -0.176728        -1.294613        -0.751390
 H         1.674790        -1.107411         2.469578
