19
Iteration:   708charge 0 multiplicity 1
 C         4.033837         1.695867         2.545727
 C         3.090409         0.974176         1.694333
 O         3.355521        -0.427279         1.523577
 C         2.535522        -0.354363         0.299587
 C         2.600585         1.139923         0.306053
 C         1.551780         1.176727         1.390947
 C         1.086037        -0.241744         0.857279
 C         0.037517        -0.012259        -0.196662
 O         0.677634        -1.398303         1.549714
 H         4.243770         1.253466         3.533706
 H         4.981407         1.399461         2.035648
 H         3.956318         2.728432         2.618196
 H         2.999225        -1.168032        -0.396528
 H         2.874540         1.841649        -0.470490
 H         0.932855         1.727826         1.962428
 H        -0.959202         0.090386         0.160727
 H         0.132582         0.835864        -0.892439
 H         0.206447        -0.808406        -0.809957
 H         1.278502        -1.497344         2.406428
