19
Iteration:  1931charge 0 multiplicity 1
 C         3.717672         1.361949         2.973034
 C         3.102610         0.952316         1.612568
 O         3.332986        -0.430696         1.259027
 C         2.518807        -0.237753         0.128170
 C         2.725299         1.281760         0.147646
 C         1.594415         1.229396         1.178432
 C         1.158129        -0.182028         0.860665
 C        -0.057955        -0.207641        -0.180711
 O         0.919012        -1.199293         1.917386
 H         3.619083         0.636153         3.787053
 H         4.850123         1.392782         2.803943
 H         3.425921         2.360914         3.174603
 H         2.760196        -0.958241        -0.705418
 H         3.016461         1.971864        -0.712549
 H         0.958243         2.108629         1.588032
 H         0.134375         0.344856        -1.171188
 H        -0.464116        -1.284299        -0.365551
 H        -0.864437         0.411356         0.073331
 H         1.842513        -1.536631         2.153226
