19
Iteration:  1858charge 0 multiplicity 1
 C         4.075682         1.794438         2.540889
 C         3.120256         0.920122         1.756336
 O         3.446333        -0.452636         1.455429
 C         2.538786        -0.368236         0.283122
 C         2.608283         1.218585         0.364815
 C         1.560893         1.088620         1.472122
 C         1.074332        -0.292925         0.848075
 C         0.073133         0.045349        -0.250453
 O         0.536736        -1.475450         1.551978
 H         4.063871         1.471945         3.595123
 H         5.175048         1.752546         2.189826
 H         3.781278         2.882426         2.363921
 H         2.910560        -0.891180        -0.550753
 H         2.755898         1.912634        -0.516718
 H         0.782729         1.689433         2.111680
 H         0.195121         1.120404        -0.674839
 H         0.174067        -0.687961        -1.068850
 H        -1.016027         0.022231         0.044178
 H         1.240514        -1.571303         2.298147
