19
Iteration:  2991
 C         4.001048         1.806770         2.571343
 C         3.096704         0.930955         1.741654
 O         3.542635        -0.454671         1.429882
 C         2.548111        -0.337696         0.258339
 C         2.596686         1.263235         0.375355
 C         1.600254         1.092574         1.510658
 C         1.022274        -0.307751         0.876193
 C         0.025427        -0.014567        -0.309540
 O         0.579804        -1.455111         1.620171
 H         3.683570         1.604919         3.615374
 H         4.999598         1.476891         2.381035
 H         3.912172         2.824145         2.256561
 H         2.731300        -0.986167        -0.572051
 H         2.888335         1.928827        -0.350673
 H         0.831291         1.894297         1.730098
 H         0.314947         0.855954        -0.719888
 H         0.114559        -0.667191        -1.210193
 H        -1.162531        -0.033797         0.026081
 H         1.454364        -1.815708         1.850038
