19
Iteration:  3223charge 0 multiplicity 1
 C         3.956808         1.746985         2.547525
 C         3.080265         0.920339         1.759726
 O         3.454885        -0.457775         1.430844
 C         2.548795        -0.391196         0.288579
 C         2.593992         1.194885         0.427820
 C         1.493043         1.077893         1.428694
 C         1.081448        -0.199730         0.833643
 C         0.082413        -0.026722        -0.313247
 O         0.712044        -1.409882         1.587613
 H         4.157280         1.426462         3.529662
 H         4.993842         1.873439         2.135503
 H         3.473639         2.771934         2.467083
 H         2.651363        -1.175044        -0.499043
 H         2.773411         2.047649        -0.121458
 H         0.911910         1.967328         1.862786
 H         0.574627         0.590950        -1.039774
 H        -0.198830        -0.894410        -0.889314
 H        -0.869234         0.547446         0.225287
 H         1.233782        -1.418807         2.448004
