19
Iteration:  4372
 C         3.851464         1.577847         2.760593
 C         3.001322         0.952735         1.714997
 O         3.312309        -0.391486         1.412465
 C         2.526470        -0.226767         0.242182
 C         2.679498         1.316430         0.246188
 C         1.477792         1.177571         1.208735
 C         1.159507        -0.280905         0.823393
 C         0.066641        -0.241901        -0.325474
 O         0.880824        -1.295781         1.815435
 H         3.456835         1.453602         3.764261
 H         4.828073         1.002493         2.856228
 H         4.182236         2.590895         2.680038
 H         2.681271        -0.940398        -0.582864
 H         2.972514         2.128492        -0.363559
 H         0.869274         1.863237         1.811745
 H         0.466506         0.271521        -1.293587
 H        -0.120447        -1.378787        -0.537366
 H        -0.917090         0.051179         0.073516
 H         1.749285        -1.603320         1.985919
