19
Iteration:  4169charge 0 multiplicity 1
 C         3.575885         1.497961         2.907191
 C         3.058059         0.935503         1.603658
 O         3.466817        -0.421424         1.373754
 C         2.569424        -0.318296         0.152462
 C         2.640415         1.250227         0.163938
 C         1.574520         1.146907         1.276815
 C         1.137478        -0.233105         0.736504
 C        -0.033363        -0.258204        -0.173703
 O         0.952032        -1.134494         1.802468
 H         3.546871         0.751600         3.670207
 H         4.684104         1.793284         2.786806
 H         3.201003         2.446930         3.400512
 H         3.034502        -0.962416        -0.629211
 H         2.954116         2.070972        -0.540011
 H         1.135169         2.154341         1.679214
 H         0.132364         0.585142        -0.772686
 H        -0.166012        -1.102265        -0.838805
 H        -0.984788         0.064126         0.443456
 H         1.911398        -1.420888         2.059871
