19
Iteration:   707charge 0 multiplicity 1
 C         4.041363         1.688300         2.555273
 C         3.080515         0.974329         1.692388
 O         3.357870        -0.428422         1.523283
 C         2.534085        -0.354445         0.297190
 C         2.601965         1.141300         0.304156
 C         1.552973         1.177575         1.385325
 C         1.086022        -0.232554         0.861437
 C         0.031567        -0.013714        -0.195153
 O         0.687914        -1.395803         1.550054
 H         4.225612         1.237055         3.515041
 H         5.004624         1.386652         2.033141
 H         3.929681         2.740568         2.612105
 H         2.975632        -1.196114        -0.366532
 H         2.862439         1.856236        -0.451625
 H         0.888753         1.773234         1.932400
 H        -0.947422         0.061302         0.148019
 H         0.135806         0.826950        -0.850998
 H         0.195171        -0.857075        -0.852836
 H         1.261436        -1.476413         2.388348
