19
Iteration:  4253
 C         3.956460         1.700566         2.694200
 C         3.002412         1.009824         1.726327
 O         3.383483        -0.433440         1.443366
 C         2.525135        -0.260448         0.261498
 C         2.570986         1.302477         0.294350
 C         1.452082         1.111997         1.351950
 C         1.173646        -0.328245         0.789585
 C         0.109060        -0.154621        -0.316815
 O         0.795805        -1.415911         1.687808
 H         3.414939         1.930047         3.596645
 H         4.734708         0.918654         2.966625
 H         4.377411         2.556403         2.171650
 H         2.831546        -0.839102        -0.633454
 H         2.619936         2.116734        -0.463628
 H         0.931636         1.958053         1.915544
 H         0.646107         0.580618        -0.948992
 H        -0.091533        -1.120229        -0.849413
 H        -0.826123         0.104322         0.178698
 H         1.426822        -1.463308         2.441220
