19
Iteration:  1759charge 0 multiplicity 1
 C         3.899998         1.440669         2.780190
 C         3.051398         0.953425         1.698955
 O         3.303358        -0.524697         1.384465
 C         2.525925        -0.288136         0.099896
 C         2.717537         1.313202         0.271128
 C         1.570059         1.273616         1.303631
 C         1.097923        -0.200667         0.804164
 C        -0.048087        -0.210817        -0.201726
 O         0.870240        -1.186495         1.780857
 H         3.555429         0.798745         3.604500
 H         5.004926         1.661749         2.560941
 H         3.541929         2.435047         3.083457
 H         2.769750        -1.025367        -0.690680
 H         3.050421         2.092988        -0.344690
 H         0.998512         2.135873         1.733701
 H         0.088822         0.507925        -1.128137
 H         0.029728        -1.132999        -0.666444
 H        -1.037750        -0.241800         0.191423
 H         1.856444        -1.488350         2.023292
