19
Iteration:   245charge 0 multiplicity 1
 C         3.948990         1.727238         2.606917
 C         3.090276         0.849917         1.642048
 O         3.438983        -0.496395         1.387223
 C         2.480139        -0.318073         0.210482
 C         2.698095         1.201989         0.285081
 C         1.614181         1.063497         1.442058
 C         1.009279        -0.240279         0.859849
 C         0.037311        -0.031898        -0.258691
 O         0.670410        -1.290447         1.771014
 H         3.756373         1.550256         3.658798
 H         5.078492         1.764894         2.192193
 H         3.524886         2.774253         2.417257
 H         2.769212        -1.110958        -0.566291
 H         3.047368         1.996629        -0.341352
 H         1.114003         1.784823         2.148248
 H        -0.638707        -0.907907        -0.237300
 H        -0.549790         0.935811        -0.269557
 H         0.574221        -0.044702        -1.172885
 H         1.444414        -1.454080         2.275290
