19
Iteration:  3110charge 0 multiplicity 1
 C         3.790492         1.469975         2.841717
 C         3.041198         0.934230         1.653549
 O         3.448556        -0.466687         1.265121
 C         2.541305        -0.285948         0.146355
 C         2.674844         1.247931         0.305046
 C         1.578821         1.203730         1.305406
 C         1.074509        -0.159407         0.782906
 C        -0.035700        -0.240531        -0.271318
 O         0.864450        -1.136093         1.876856
 H         3.508440         0.768586         3.696809
 H         4.876579         1.542966         2.757264
 H         3.322841         2.418624         3.001269
 H         2.761823        -0.998212        -0.647039
 H         3.216531         1.862896        -0.403168
 H         0.996167         2.009236         1.653214
 H         0.133710         0.247757        -1.164573
 H        -0.189668        -1.260349        -0.636890
 H        -0.984616         0.078743         0.250118
 H         1.782395        -1.320909         2.142490
