19
Iteration:  4643charge 0 multiplicity 1
 C         3.788968         1.578077         2.868608
 C         3.092357         0.931391         1.667072
 O         3.274775        -0.457770         1.523719
 C         2.572509        -0.378272         0.198475
 C         2.815249         1.282015         0.288064
 C         1.557244         1.177612         1.094058
 C         1.098714        -0.207725         0.708649
 C        -0.115013        -0.262960        -0.273126
 O         0.910174        -1.118351         1.797661
 H         4.142594         2.617403         2.624429
 H         3.102489         1.644522         3.792969
 H         4.595867         0.891913         3.168033
 H         2.959737        -1.052625        -0.577179
 H         3.229104         2.007324        -0.466763
 H         1.015658         2.073463         1.410395
 H        -0.019095         0.319076        -1.203450
 H        -0.024412        -1.369415        -0.601011
 H        -1.026235        -0.107343         0.298732
 H         1.758634        -1.504191         1.880153
