19
Iteration:  3103
 C         3.752162         1.411661         2.826743
 C         3.089053         0.931023         1.662940
 O         3.428662        -0.473092         1.296839
 C         2.561228        -0.271961         0.173322
 C         2.747589         1.312839         0.245639
 C         1.538377         1.214991         1.241412
 C         1.066686        -0.188756         0.803432
 C        -0.044352        -0.266445        -0.210372
 O         0.869001        -1.149043         1.858650
 H         3.611587         0.742981         3.616977
 H         4.835762         1.617196         2.732907
 H         3.339409         2.411644         3.109905
 H         2.444822        -0.913778        -0.744831
 H         3.263435         2.196403        -0.346382
 H         0.909027         2.025827         1.641354
 H         0.249454         0.274909        -1.169337
 H        -0.174848        -1.319195        -0.430208
 H        -1.090684         0.164348         0.098996
 H         1.740301        -1.226446         2.170440
