19
Iteration:  1552
 C         3.821765         1.606521         2.744269
 C         3.048839         0.889202         1.619795
 O         3.492893        -0.492223         1.320643
 C         2.543927        -0.386406         0.182546
 C         2.671326         1.209133         0.229372
 C         1.562355         1.049755         1.411228
 C         1.112660        -0.209799         0.784553
 C         0.034282        -0.013464        -0.242891
 O         0.725431        -1.211826         1.832427
 H         3.798062         0.893645         3.539077
 H         4.847912         1.929236         2.463262
 H         3.439179         2.498992         3.069531
 H         2.942442        -0.960696        -0.714138
 H         2.719612         2.050372        -0.532306
 H         1.080513         1.725928         2.006161
 H        -0.731846         0.815094         0.059013
 H         0.444621         0.169245        -1.147018
 H        -0.570463        -0.880115        -0.344151
 H         1.411771        -0.986525         2.488499
