19
Iteration:  2970
 C         4.088513         1.782930         2.562877
 C         3.065482         0.998793         1.739017
 O         3.402747        -0.398161         1.437882
 C         2.590557        -0.332393         0.290718
 C         2.583565         1.233274         0.353307
 C         1.536670         1.006850         1.493174
 C         1.121160        -0.285478         0.864867
 C         0.110079        -0.039424        -0.245886
 O         0.538601        -1.436639         1.510673
 H         3.956783         1.849760         3.638207
 H         5.031792         1.342154         2.270275
 H         3.955399         2.712822         2.106991
 H         2.967224        -0.937808        -0.510500
 H         2.724464         1.961976        -0.377358
 H         0.927603         1.699631         2.104270
 H         0.133070         0.865844        -0.663639
 H         0.091000        -0.750722        -1.047985
 H        -0.773728        -0.164998         0.491563
 H         1.179511        -1.864907         2.199638
