19
Iteration:  1248
 C         3.864035         1.542825         2.759568
 C         3.100709         0.934849         1.662613
 O         3.311508        -0.541456         1.429616
 C         2.565803        -0.271538         0.132018
 C         2.712552         1.163913         0.234073
 C         1.624952         1.176894         1.255895
 C         1.108357        -0.166368         0.818447
 C        -0.073838        -0.187175        -0.207723
 O         0.838869        -1.106562         1.802173
 H         3.414613         1.279119         3.726475
 H         4.946224         1.145036         2.596052
 H         3.909318         2.622582         2.796486
 H         2.756641        -0.973305        -0.726456
 H         2.806464         2.027820        -0.475558
 H         0.982545         1.938151         1.941939
 H        -0.958327        -0.320052         0.498744
 H        -0.363646         0.718359        -0.880948
 H        -0.071885        -1.101452        -0.973452
 H         1.758431        -1.547901         2.016683
