19
Iteration:  1670charge 0 multiplicity 1
 C         3.813191         1.659794         2.750096
 C         3.130078         0.888725         1.691011
 O         3.408287        -0.577857         1.302521
 C         2.527532        -0.318317         0.186156
 C         2.645072         1.298849         0.332252
 C         1.624303         1.118376         1.442455
 C         1.099778        -0.243062         0.817274
 C        -0.075166        -0.051900        -0.182534
 O         0.830660        -1.272063         1.647355
 H         3.485330         1.256556         3.742084
 H         4.940524         1.733221         2.519831
 H         3.623249         2.716020         2.630881
 H         2.830251        -0.935608        -0.730072
 H         2.800005         2.059140        -0.488401
 H         1.021122         1.801829         1.890428
 H         0.433462         0.245883        -1.155435
 H        -0.483452        -1.041487        -0.163691
 H        -0.858177         0.655756         0.005526
 H         1.623956        -1.393503         2.193961
