19
Iteration:   528
 C         4.024997         1.748143         2.516205
 C         3.079008         0.908827         1.739556
 O         3.469745        -0.541480         1.412571
 C         2.537879        -0.392945         0.301798
 C         2.650471         1.203429         0.354993
 C         1.569913         1.145877         1.496078
 C         1.013644        -0.247650         0.877636
 C         0.087148        -0.055335        -0.271678
 O         0.592581        -1.321309         1.629744
 H         4.060247         1.691707         3.641115
 H         4.938482         1.743685         1.935574
 H         3.589594         2.768290         2.281432
 H         2.696029        -0.971173        -0.603269
 H         2.852783         1.872352        -0.464788
 H         1.017124         2.023754         1.837489
 H        -0.892377        -0.161607         0.136254
 H         0.062911         0.956990        -0.599485
 H         0.264440        -0.688965        -1.188806
 H         1.267999        -1.431055         2.265875
