19
Iteration:  1112charge 0 multiplicity 1
 C         3.980102         1.570947         2.737780
 C         3.144642         0.944721         1.657289
 O         3.414345        -0.422376         1.418858
 C         2.564779        -0.311257         0.222204
 C         2.624265         1.165182         0.213852
 C         1.547460         1.202769         1.368517
 C         1.105681        -0.247057         0.791230
 C        -0.026211        -0.145103        -0.228226
 O         0.670730        -1.281997         1.723278
 H         3.627930         1.239573         3.774260
 H         5.052178         1.486552         2.571758
 H         3.768711         2.684475         2.672290
 H         2.842152        -1.080077        -0.565633
 H         2.963398         1.934544        -0.550631
 H         1.035945         2.058673         1.697099
 H        -0.943319         0.325064         0.298181
 H         0.359135         0.464995        -1.070217
 H        -0.278206        -1.075388        -0.698254
 H         1.334416        -1.198236         2.530194
