19
Iteration:  1180charge 0 multiplicity 1
 C         4.012939         1.835054         2.493087
 C         3.130587         0.876632         1.710220
 O         3.420807        -0.501798         1.435600
 C         2.526800        -0.406603         0.276984
 C         2.632044         1.190070         0.341122
 C         1.578394         1.003908         1.572817
 C         1.122713        -0.267239         0.873770
 C         0.115372        -0.001965        -0.366062
 O         0.542460        -1.300589         1.647022
 H         4.260233         1.572893         3.531722
 H         4.875333         2.200056         1.973476
 H         3.363595         2.780395         2.667707
 H         2.682461        -1.027312        -0.537746
 H         2.780874         2.039576        -0.255132
 H         1.197780         1.891660         2.168959
 H        -0.687658         0.643438         0.261961
 H         0.421101         0.503933        -1.235140
 H        -0.477304        -0.871603        -0.672619
 H         1.156815        -1.928750         2.040714
