19
Iteration:  4872
 C         3.706256         1.502412         2.921640
 C         3.130100         1.005643         1.612746
 O         3.325484        -0.443076         1.418256
 C         2.599670        -0.442578         0.303440
 C         2.776804         1.120056         0.085923
 C         1.628065         1.174283         1.146030
 C         1.118626        -0.224566         0.731851
 C         0.074411        -0.294136        -0.315102
 O         0.677453        -0.926821         1.926343
 H         3.980711         0.622537         3.428545
 H         4.598305         2.102228         2.718044
 H         3.068548         2.116490         3.500845
 H         2.792996        -1.162506        -0.523397
 H         3.130136         1.862760        -0.715108
 H         1.196486         2.063088         1.653312
 H         0.485396         0.077142        -1.135730
 H        -0.147636        -1.380532        -0.504357
 H        -0.688136         0.450029        -0.103932
 H         1.538613        -1.179694         2.417284
