19
Iteration:  2956charge 0 multiplicity 1
 C         4.040014         1.750084         2.488404
 C         3.111651         0.917866         1.730878
 O         3.423482        -0.450699         1.533287
 C         2.566728        -0.335479         0.275078
 C         2.470962         1.263868         0.354872
 C         1.585389         1.055899         1.573352
 C         1.166281        -0.320113         0.762611
 C         0.050353        -0.048216        -0.223249
 O         0.641889        -1.366765         1.503552
 H         3.819381         1.659857         3.596538
 H         5.070924         1.439078         2.439438
 H         4.060052         2.852729         2.374463
 H         2.848575        -1.081021        -0.490678
 H         2.392836         2.128467        -0.358307
 H         0.766056         1.846469         1.796168
 H         0.225945         0.942575        -0.761514
 H         0.153317        -0.926857        -0.946587
 H        -1.046897        -0.000948         0.049581
 H         1.181267        -1.460820         2.256460
