19
Iteration:  1904charge 0 multiplicity 1
 C         3.875954         1.518281         2.740561
 C         3.058725         0.887954         1.660064
 O         3.361936        -0.540815         1.418280
 C         2.524234        -0.264921         0.171139
 C         2.631843         1.297670         0.259961
 C         1.555145         1.100160         1.407338
 C         1.099061        -0.143387         0.822661
 C        -0.019329        -0.188644        -0.264395
 O         0.872906        -1.153304         1.710071
 H         3.979005         0.924425         3.649990
 H         4.854978         1.769980         2.378740
 H         3.522585         2.589109         2.928910
 H         2.675899        -0.983631        -0.633024
 H         3.063758         2.033510        -0.367975
 H         1.048440         1.890644         1.922074
 H         0.240580         0.259613        -1.183164
 H        -0.230354        -1.179303        -0.445845
 H        -1.026296         0.282961         0.025442
 H         1.819424        -1.230560         2.189425
