19
Iteration:   339charge 0 multiplicity 1
 C         3.895840         1.656799         2.681967
 C         3.036972         0.877173         1.660661
 O         3.385155        -0.531189         1.276160
 C         2.557347        -0.335255         0.132934
 C         2.709267         1.265573         0.292360
 C         1.585193         1.112113         1.462106
 C         1.100877        -0.248707         0.797658
 C         0.012529        -0.137469        -0.221472
 O         0.743430        -1.204037         1.834771
 H         3.699167         1.248931         3.727315
 H         4.915552         1.707004         2.325903
 H         3.516720         2.674103         2.764447
 H         2.737041        -0.981495        -0.719288
 H         2.911470         2.171224        -0.211634
 H         0.937559         1.891123         2.029129
 H        -0.680095         0.712462         0.096285
 H         0.379972         0.175387        -1.244575
 H        -0.454035        -1.114159        -0.379476
 H         1.617089        -1.274128         2.247109
