19
Iteration:  3960charge 0 multiplicity 1
 C         3.727757         1.542033         2.907826
 C         2.989309         0.980569         1.645568
 O         3.308542        -0.409572         1.351630
 C         2.593542        -0.287835         0.130787
 C         2.799733         1.244135         0.198758
 C         1.543869         1.181523         1.265789
 C         1.181547        -0.214569         0.760432
 C        -0.068970        -0.256117        -0.153951
 O         0.947302        -1.240817         1.782097
 H         3.457607         0.762623         3.541310
 H         4.800634         1.541294         2.702283
 H         3.250624         2.449048         3.243053
 H         2.935683        -0.898473        -0.727356
 H         3.069780         2.125626        -0.490185
 H         0.913438         2.015501         1.453116
 H        -0.155412         0.618084        -0.822210
 H        -0.000282        -1.162944        -0.779557
 H        -1.021984        -0.201109         0.569175
 H         1.874173        -1.380013         2.191516
