19
Iteration:  4879charge 0 multiplicity 1
 C         3.746002         1.531252         2.892842
 C         3.078972         0.992640         1.612152
 O         3.349820        -0.488576         1.486259
 C         2.615105        -0.423827         0.238859
 C         2.816338         1.124320         0.102740
 C         1.609438         1.200612         1.147590
 C         1.043090        -0.178099         0.796988
 C         0.073508        -0.273714        -0.306377
 O         0.700125        -0.998477         1.887625
 H         4.060116         0.620051         3.574238
 H         4.648750         2.142483         2.682710
 H         3.043517         2.236889         3.389250
 H         2.858673        -1.226795        -0.458510
 H         3.055708         1.779317        -0.688133
 H         1.126887         2.190814         1.371228
 H         0.570500         0.093109        -1.315494
 H        -0.310729        -1.233464        -0.500046
 H        -0.776586         0.358510        -0.094856
 H         1.545829        -1.103483         2.330946
