19
Iteration:  1072charge 0 multiplicity 1
 C         3.800751         1.509133         2.749079
 C         3.024311         0.857877         1.658454
 O         3.231546        -0.533480         1.415641
 C         2.566775        -0.305060         0.075554
 C         2.792506         1.239957         0.225377
 C         1.639820         1.221803         1.369562
 C         1.099222        -0.179872         0.752867
 C        -0.072757        -0.233619        -0.207283
 O         0.923073        -1.063563         1.835240
 H         3.497076         1.165315         3.702388
 H         4.827257         1.326672         2.743799
 H         3.568653         2.580739         2.575129
 H         2.864741        -0.949000        -0.693175
 H         3.331586         1.847314        -0.530876
 H         0.952707         1.934056         1.705626
 H        -0.974490        -0.479822         0.396776
 H        -0.194648         0.707595        -0.656717
 H        -0.074991        -1.096759        -0.844250
 H         1.934100        -1.065704         2.190948
