19
Iteration:   165charge 0 multiplicity 1
 C         3.936902         1.522616         2.768468
 C         3.081125         0.964134         1.644362
 O         3.223775        -0.484658         1.504772
 C         2.476648        -0.405979         0.175427
 C         2.729171         1.171008         0.158558
 C         1.612827         1.253052         1.157939
 C         1.136661        -0.125089         0.782003
 C        -0.095712        -0.206950        -0.104301
 O         0.899798        -1.126085         1.746668
 H         3.830064         0.910457         3.685936
 H         5.056462         1.185871         2.548607
 H         3.757306         2.551658         3.022852
 H         2.825806        -1.212234        -0.400574
 H         3.147864         1.876778        -0.609484
 H         0.896761         1.956757         1.592403
 H         0.160947        -0.569041        -1.148442
 H        -0.864012        -0.856402         0.382783
 H        -0.596231         0.796493        -0.248609
 H         1.688167        -1.198075         2.245725
