19
Iteration:  2921charge 0 multiplicity 1
 C         3.916056         1.700582         2.690613
 C         3.024623         0.903986         1.740811
 O         3.352164        -0.516051         1.332294
 C         2.491497        -0.285826         0.180739
 C         2.681127         1.274675         0.328856
 C         1.563429         1.137792         1.384247
 C         1.120353        -0.271625         0.798710
 C         0.030692        -0.074835        -0.212293
 O         0.787050        -1.325388         1.750231
 H         3.821925         1.299784         3.715355
 H         4.958115         1.692060         2.289453
 H         3.377851         2.710736         2.650307
 H         2.825059        -1.079529        -0.542492
 H         3.035174         2.098787        -0.363536
 H         0.935828         1.858973         1.818069
 H         0.638524         0.536508        -1.046231
 H        -0.050096        -1.036609        -0.816807
 H        -0.857133         0.280785         0.166582
 H         1.563562        -1.783017         1.958629
