19
Iteration:   628
 C         3.695328         1.473285         2.923202
 C         3.151186         0.860116         1.546177
 O         3.446072        -0.527496         1.239219
 C         2.546070        -0.296155         0.097191
 C         2.726023         1.273496         0.171863
 C         1.624803         1.166970         1.273444
 C         1.077738        -0.212773         0.809657
 C        -0.064213        -0.193951        -0.123127
 O         0.825553        -1.059334         1.899584
 H         3.270494         0.965256         3.724415
 H         4.817507         1.511278         2.963831
 H         3.340389         2.563801         2.863251
 H         2.740684        -0.909461        -0.757474
 H         3.088710         2.102127        -0.454212
 H         1.039766         2.025712         1.876388
 H        -0.974583         0.143858         0.191828
 H         0.279784         0.176297        -0.997266
 H        -0.364248        -1.277722        -0.238703
 H         1.752647        -1.025373         2.305358
