19
Iteration:   248charge 0 multiplicity 1
 C         3.966331         1.715026         2.571299
 C         3.096455         0.874165         1.655913
 O         3.437769        -0.487741         1.404482
 C         2.478058        -0.329013         0.260167
 C         2.686277         1.206845         0.288555
 C         1.623726         1.063140         1.461834
 C         1.027105        -0.248384         0.838586
 C         0.008294        -0.030205        -0.284046
 O         0.671474        -1.292598         1.754580
 H         3.742212         1.441183         3.642731
 H         4.903943         1.815182         2.201046
 H         3.617862         2.781303         2.413766
 H         2.783682        -1.052276        -0.502463
 H         3.025031         2.006270        -0.414417
 H         1.144383         1.696276         2.080580
 H        -0.741246        -0.762433        -0.231581
 H        -0.518537         0.871830        -0.159292
 H         0.586629        -0.106142        -1.238727
 H         1.483842        -1.495638         2.245284
