19
Iteration:  2077charge 0 multiplicity 1
 C         3.999585         1.825002         2.453739
 C         3.099524         0.910409         1.717303
 O         3.530329        -0.445176         1.410462
 C         2.544732        -0.346076         0.342689
 C         2.564377         1.147015         0.382978
 C         1.591910         1.026028         1.714699
 C         1.121231        -0.212677         0.921569
 C         0.115999        -0.051624        -0.380420
 O         0.518148        -1.367240         1.506801
 H         4.079746         1.232805         3.421812
 H         4.980680         2.019842         1.984148
 H         3.423452         2.747516         2.884958
 H         2.815439        -0.841009        -0.550025
 H         2.528734         2.035100        -0.324485
 H         0.950086         1.754419         2.000001
 H         0.444997         0.545316        -1.293973
 H        -0.323263        -1.008336        -0.726601
 H        -0.916160         0.431868         0.029367
 H         1.207996        -1.766951         2.157120
