19
Iteration:  1102charge 0 multiplicity 1
 C         3.934608         1.542615         2.747200
 C         3.103858         0.946894         1.678454
 O         3.420387        -0.499712         1.435200
 C         2.511823        -0.341159         0.233950
 C         2.670165         1.283745         0.229996
 C         1.587109         1.264825         1.280993
 C         1.065786        -0.238731         0.791749
 C        -0.020453        -0.198754        -0.210481
 O         0.742219        -1.232363         1.737593
 H         3.663361         1.238140         3.806648
 H         4.956961         1.301265         2.582895
 H         3.785708         2.682946         2.753694
 H         2.712300        -1.077470        -0.595133
 H         2.999157         1.880634        -0.705200
 H         0.885130         1.981597         1.506993
 H        -1.016957         0.204441         0.316717
 H         0.070384         0.634662        -0.906092
 H        -0.199371        -1.114147        -0.679813
 H         1.721505        -1.396308         2.220232
