19
Iteration:  4738
 C         3.904083         1.886236         2.490276
 C         3.134252         0.924199         1.673957
 O         3.405143        -0.516043         1.616427
 C         2.581993        -0.430926         0.357041
 C         2.645541         1.147433         0.361981
 C         1.625408         1.037581         1.476033
 C         1.115476        -0.276988         0.834191
 C         0.164967        -0.066378        -0.366344
 O         0.483602        -1.255993         1.551439
 H         3.321410         2.301075         3.357169
 H         4.754587         1.413199         2.905136
 H         4.299684         2.704754         1.902309
 H         2.982885        -1.052553        -0.446264
 H         2.940651         1.823877        -0.470355
 H         0.978165         1.817008         1.865555
 H         0.580980         0.617950        -1.216058
 H        -0.141173        -1.001828        -0.797384
 H        -0.702631         0.351544         0.073217
 H         1.111586        -1.548805         2.308846
