19
Iteration:  4585charge 0 multiplicity 1
 C         3.730478         1.670544         2.836821
 C         3.098854         0.966487         1.604151
 O         3.438977        -0.438615         1.364677
 C         2.571782        -0.440113         0.233329
 C         2.700809         1.246325         0.229263
 C         1.616959         1.096983         1.384003
 C         1.079351        -0.281257         0.793064
 C         0.050812        -0.190745        -0.360297
 O         0.713294        -1.160225         1.827981
 H         4.752144         1.995227         2.608611
 H         3.216933         2.479397         3.220808
 H         3.923588         0.965885         3.607007
 H         2.952989        -1.052585        -0.596180
 H         2.889948         1.905974        -0.600411
 H         1.145953         1.973223         1.830200
 H         0.454261         0.564983        -1.184481
 H        -0.185620        -1.103005        -0.861340
 H        -0.917608         0.190530        -0.010323
 H         1.555515        -1.420276         2.347389
