19
Iteration:  4895charge 0 multiplicity 1
 C         3.770975         1.660247         2.704827
 C         3.064090         0.873650         1.727541
 O         3.325207        -0.514642         1.608388
 C         2.537837        -0.417687         0.244093
 C         2.799150         1.095448         0.251114
 C         1.639836         1.260173         1.123440
 C         1.139005        -0.158421         0.764298
 C        -0.019236        -0.170163        -0.344119
 O         0.760654        -1.123455         1.791909
 H         3.932102         0.915989         3.409501
 H         4.752361         2.016965         2.401540
 H         3.227126         2.444552         3.220816
 H         2.863694        -1.136694        -0.531141
 H         3.304782         1.810379        -0.458764
 H         1.010832         2.085932         1.362839
 H         0.332546         0.120276        -1.235544
 H        -0.117964        -1.294221        -0.393383
 H        -0.913224         0.462810        -0.166222
 H         1.465586        -1.197465         2.424471
