19
Iteration:  1405
 C         4.028790         1.781410         2.507871
 C         3.093392         0.907400         1.692060
 O         3.471202        -0.498899         1.424695
 C         2.542305        -0.392482         0.310384
 C         2.660630         1.152416         0.295934
 C         1.606497         1.017631         1.486018
 C         1.098277        -0.242813         0.900133
 C         0.093952         0.040860        -0.275470
 O         0.499770        -1.336491         1.661527
 H         4.061517         1.580749         3.599559
 H         5.004179         1.699905         2.100276
 H         3.635917         2.855639         2.425725
 H         2.734496        -0.988707        -0.537012
 H         2.554676         2.033639        -0.400750
 H         0.920306         1.801041         1.825648
 H        -0.863747         0.133226         0.103979
 H         0.008303         1.112052        -0.622953
 H         0.262327        -0.647637        -1.149292
 H         1.073435        -1.663617         2.362952
