19
Iteration:  4442
 C         3.662348         1.575512         2.805812
 C         3.036671         0.945921         1.635638
 O         3.532578        -0.399330         1.367586
 C         2.556164        -0.332860         0.176495
 C         2.696076         1.184958         0.200738
 C         1.598371         1.093907         1.276510
 C         1.138113        -0.212618         0.806058
 C         0.057460        -0.224345        -0.232299
 O         0.750922        -1.133753         1.821585
 H         3.993519         0.740063         3.411028
 H         4.445596         2.287486         2.784946
 H         2.918139         2.066697         3.463184
 H         2.977730        -0.946134        -0.627340
 H         2.819038         1.917282        -0.634007
 H         0.996765         1.910527         1.744431
 H         0.213715         0.519754        -0.985317
 H        -0.100186        -1.176552        -0.703308
 H        -0.925919        -0.003292         0.317272
 H         1.604073        -1.410436         2.258036
