19
Iteration:  1278
 C         3.698589         1.475447         2.804213
 C         3.126497         0.838074         1.642050
 O         3.414012        -0.576951         1.224319
 C         2.541301        -0.278100         0.065089
 C         2.776509         1.242362         0.268195
 C         1.625439         1.211291         1.212058
 C         1.053816        -0.118604         0.893839
 C        -0.056641        -0.273855        -0.171489
 O         0.846046        -1.035864         1.895328
 H         3.185376         1.254558         3.733960
 H         4.721828         1.238683         3.043498
 H         3.774693         2.580630         2.601698
 H         2.593700        -0.960620        -0.748203
 H         3.229087         2.172654        -0.150603
 H         1.106316         2.002152         1.944227
 H        -1.102361        -0.303902         0.213532
 H         0.106732         0.442931        -0.845266
 H        -0.121037        -1.169272        -0.637330
 H         1.578262        -0.874938         2.440726
