19
Iteration:  4444
 C         3.663282         1.579166         2.811003
 C         3.033986         0.953234         1.638909
 O         3.531517        -0.388910         1.375059
 C         2.554947        -0.365399         0.182508
 C         2.687072         1.191384         0.181870
 C         1.605180         1.083988         1.293215
 C         1.143383        -0.206216         0.792721
 C         0.050787        -0.209510        -0.234732
 O         0.755155        -1.139953         1.824820
 H         4.020368         0.664431         3.455282
 H         4.428292         2.345984         2.725701
 H         2.922901         2.075833         3.474463
 H         2.916120        -0.998988        -0.647214
 H         2.805615         1.861308        -0.656411
 H         0.955883         1.871966         1.790176
 H         0.191664         0.589341        -1.033417
 H        -0.031223        -1.156874        -0.703393
 H        -0.840167         0.008013         0.313182
 H         1.600872        -1.377004         2.181768
