19
Iteration:  3655charge 0 multiplicity 1
 C         3.931205         1.869614         2.612387
 C         3.179418         0.992839         1.722782
 O         3.415749        -0.441133         1.449142
 C         2.569497        -0.430696         0.281092
 C         2.655464         1.222012         0.347459
 C         1.590004         0.990540         1.440024
 C         1.136511        -0.323230         0.794049
 C        -0.025743        -0.048283        -0.262031
 O         0.631218        -1.412072         1.578409
 H         3.657087         1.728941         3.678053
 H         5.008719         1.880188         2.520616
 H         3.662863         2.983153         2.481016
 H         2.885049        -0.988809        -0.625249
 H         2.700549         2.000823        -0.458301
 H         1.048215         1.832529         1.830735
 H         0.214897         0.931474        -0.555976
 H        -0.132106        -0.627586        -1.167094
 H        -0.920487        -0.075072         0.347420
 H         1.102841        -1.566355         2.363821
