19
Iteration:  1090charge 0 multiplicity 1
 C         3.879158         1.552860         2.749617
 C         3.040725         0.945340         1.668300
 O         3.321317        -0.515265         1.407677
 C         2.510607        -0.346355         0.226579
 C         2.757301         1.243408         0.255035
 C         1.577021         1.191214         1.215525
 C         1.099684        -0.153166         0.814412
 C        -0.074445        -0.186092        -0.199363
 O         0.859087        -1.166186         1.778265
 H         3.504824         1.089187         3.725967
 H         4.920372         1.240002         2.535623
 H         3.911466         2.671295         2.803413
 H         2.786078        -1.094847        -0.602740
 H         3.049865         2.108349        -0.439695
 H         1.149062         2.031431         1.710271
 H        -1.049082        -0.233739         0.411315
 H         0.016024         0.594278        -0.993838
 H         0.013901        -1.121802        -0.757850
 H         1.742014        -1.606279         1.958973
