19
Iteration:  2145
 C         3.814173         1.519905         2.819388
 C         3.124712         0.973394         1.624632
 O         3.357019        -0.487724         1.413170
 C         2.558569        -0.335886         0.219283
 C         2.697500         1.244333         0.237343
 C         1.584081         1.177974         1.239328
 C         1.122470        -0.186101         0.790328
 C        -0.079851        -0.180967        -0.210969
 O         0.886323        -1.173193         1.727100
 H         3.370498         0.960484         3.736266
 H         4.910176         1.452257         2.832827
 H         3.520301         2.550780         2.982857
 H         2.738373        -1.138009        -0.559119
 H         2.922242         2.056671        -0.402068
 H         0.926503         1.972817         1.714395
 H        -0.011855         0.661083        -0.865954
 H        -0.314929        -1.171181        -0.715838
 H        -1.078739        -0.067595         0.415557
 H         1.686309        -1.513598         2.065860
