19
Iteration:  2238
 C         3.842482         1.602968         2.730866
 C         3.156276         0.917196         1.584359
 O         3.426044        -0.489631         1.380604
 C         2.499170        -0.324824         0.241246
 C         2.595266         1.241346         0.227551
 C         1.577806         1.155335         1.364627
 C         1.155184        -0.231716         0.847180
 C         0.073818        -0.075737        -0.260268
 O         0.716005        -1.297899         1.780146
 H         3.331132         1.327827         3.614070
 H         4.897853         1.383858         2.801031
 H         3.684196         2.730157         2.709568
 H         2.562546        -0.930292        -0.643039
 H         2.952082         2.139901        -0.385060
 H         1.048977         1.971385         1.757639
 H         0.500488         0.552437        -1.088111
 H        -0.181633        -1.051565        -0.619597
 H        -0.818416         0.277344         0.116907
 H         1.365938        -1.484533         2.422921
