19
Iteration:  4231charge 0 multiplicity 1
 C         3.909782         1.647010         2.807974
 C         3.076478         0.962453         1.716322
 O         3.374598        -0.382740         1.370413
 C         2.586784        -0.267070         0.165342
 C         2.626177         1.297163         0.325087
 C         1.479813         1.099272         1.417891
 C         1.058093        -0.208726         0.737166
 C        -0.021903        -0.311280        -0.335760
 O         0.845927        -1.265737         1.749394
 H         3.385234         1.740603         3.752691
 H         4.730094         0.889857         2.913616
 H         4.294502         2.518829         2.314805
 H         3.066794        -0.894267        -0.613767
 H         2.962259         2.195053        -0.244517
 H         0.746684         1.893316         1.767604
 H         0.437524         0.125718        -1.232980
 H        -0.074328        -1.431805        -0.471502
 H        -1.034635        -0.044928        -0.044434
 H         1.785192        -1.499646         2.021441
