19
Iteration:  4644charge 0 multiplicity 1
 C         3.792753         1.577436         2.870193
 C         3.101122         0.931419         1.670163
 O         3.278760        -0.451244         1.522259
 C         2.571609        -0.383140         0.198798
 C         2.810781         1.281041         0.283908
 C         1.550404         1.181430         1.084634
 C         1.089922        -0.201553         0.726399
 C        -0.106452        -0.260715        -0.282740
 O         0.906348        -1.126645         1.797911
 H         4.117713         2.616897         2.611010
 H         3.079164         1.625964         3.817604
 H         4.641219         0.863692         3.146368
 H         2.983823        -1.025099        -0.586627
 H         3.238092         1.961196        -0.460012
 H         0.975825         2.086036         1.395488
 H         0.013424         0.317715        -1.148726
 H        -0.036289        -1.370065        -0.608496
 H        -1.035988        -0.101958         0.302248
 H         1.753497        -1.495078         1.881948
