19
Iteration:   757
 C         3.894487         1.827305         2.530248
 C         3.080768         0.863910         1.737456
 O         3.552395        -0.573381         1.342686
 C         2.545804        -0.338758         0.286656
 C         2.600204         1.166100         0.310552
 C         1.602859         1.018700         1.554728
 C         1.070529        -0.248239         0.849090
 C         0.129334         0.005784        -0.282578
 O         0.547344        -1.289860         1.669422
 H         3.841466         1.709948         3.613869
 H         4.957469         1.895407         2.283938
 H         3.309112         2.814001         2.326593
 H         2.695996        -0.916890        -0.550338
 H         3.048576         1.809009        -0.422912
 H         1.089586         1.771634         2.313475
 H        -0.570261         0.746895         0.164756
 H         0.430723         0.575051        -1.147909
 H        -0.306115        -0.918612        -0.790699
 H         1.232422        -1.490062         2.268935
