19
Iteration:  3418charge 0 multiplicity 1
 C         4.079806         1.840159         2.571137
 C         3.164716         0.980628         1.753732
 O         3.420466        -0.441677         1.479650
 C         2.508308        -0.269721         0.263932
 C         2.493176         1.212561         0.404624
 C         1.535160         0.954933         1.560143
 C         1.055644        -0.306123         0.775459
 C         0.147423        -0.087944        -0.428614
 O         0.587873        -1.426329         1.657754
 H         4.262522         1.344323         3.540946
 H         5.005379         2.074439         1.929423
 H         3.599306         2.848234         2.840056
 H         2.900941        -0.887945        -0.589155
 H         2.579965         2.122550        -0.294401
 H         0.902024         1.780949         1.846346
 H         0.710645         0.394126        -1.101076
 H        -0.178025        -0.937669        -0.967001
 H        -0.800844         0.557606        -0.132572
 H         1.479966        -1.578406         2.019958
