19
Iteration:  2716
 C         3.920343         1.794880         2.519228
 C         3.114613         0.886304         1.698727
 O         3.462788        -0.488244         1.458858
 C         2.560742        -0.336369         0.223104
 C         2.603585         1.154517         0.351928
 C         1.506924         1.004164         1.550585
 C         1.127925        -0.192119         0.820737
 C         0.091979        -0.018362        -0.288825
 O         0.646630        -1.311978         1.611661
 H         4.167748         1.310333         3.487507
 H         4.931278         1.852515         2.169800
 H         3.256338         2.680052         2.750706
 H         2.700731        -1.090290        -0.603063
 H         2.874530         1.976836        -0.243657
 H         0.869271         1.579918         2.078261
 H         0.383481         0.797606        -1.018798
 H        -0.138748        -0.995941        -0.815694
 H        -0.759153         0.457827         0.255285
 H         1.264538        -1.551520         2.390929
