19
Iteration:   366charge 0 multiplicity 1
 C         3.757164         1.495377         2.835372
 C         3.132734         0.879650         1.582502
 O         3.507647        -0.481076         1.263826
 C         2.560763        -0.314471         0.127528
 C         2.693636         1.245919         0.218897
 C         1.538825         1.176273         1.367979
 C         1.094099        -0.219001         0.822789
 C        -0.060898        -0.183828        -0.166204
 O         0.795556        -1.127948         1.842465
 H         3.318051         1.149029         3.666921
 H         4.847030         1.427289         2.778426
 H         3.685625         2.599567         2.770933
 H         2.736329        -0.975294        -0.749256
 H         2.738571         2.021781        -0.584674
 H         1.033038         1.865214         1.983635
 H        -0.591074         0.713796        -0.039082
 H         0.331372        -0.104081        -1.168890
 H        -0.724155        -1.077902        -0.115163
 H         1.599055        -1.097769         2.372783
