19
Iteration:  2038
 C         4.117318         1.704414         2.544623
 C         3.004628         1.008995         1.784223
 O         3.353396        -0.434911         1.420933
 C         2.546370        -0.270960         0.283381
 C         2.616858         1.241336         0.342341
 C         1.512880         1.052141         1.507542
 C         1.100491        -0.319345         0.786271
 C         0.081278         0.000991        -0.294453
 O         0.667775        -1.480933         1.638917
 H         4.108166         1.361309         3.594890
 H         5.090425         1.541067         2.069484
 H         3.938441         2.727246         2.575386
 H         2.958090        -0.931476        -0.583287
 H         2.713863         2.090638        -0.376758
 H         0.753259         1.932649         1.666263
 H         0.429919         0.789419        -0.880727
 H        -0.004732        -0.881539        -0.951469
 H        -0.845947         0.194977         0.166990
 H         1.169272        -1.455873         2.405101
