19
Iteration:  4793
 C         3.912010         1.703821         2.658620
 C         2.998279         0.925943         1.717124
 O         3.275281        -0.509078         1.657351
 C         2.630161        -0.402917         0.278554
 C         2.755237         1.154420         0.222429
 C         1.631607         1.226037         1.213737
 C         1.114965        -0.202730         0.774607
 C        -0.011651        -0.178036        -0.347673
 O         0.699413        -1.179679         1.714203
 H         3.842247         1.151469         3.651928
 H         4.918670         1.713755         2.314940
 H         3.460899         2.638313         2.922548
 H         3.030176        -1.144184        -0.414714
 H         3.182500         1.651787        -0.596605
 H         1.124558         2.148208         1.621223
 H         0.243271         0.594576        -1.108611
 H        -0.057455        -1.191231        -0.682221
 H        -0.896488         0.017287         0.160943
 H         1.594965        -1.539821         2.070394
