19
Iteration:   174charge 0 multiplicity 1
 C         3.968575         1.498644         2.825221
 C         3.047730         0.987674         1.605443
 O         3.266186        -0.512237         1.456461
 C         2.536156        -0.378078         0.241590
 C         2.746873         1.224597         0.142183
 C         1.580080         1.267942         1.132661
 C         1.109574        -0.186201         0.751738
 C        -0.061571        -0.201146        -0.121054
 O         0.847107        -1.152547         1.797123
 H         3.653808         0.971999         3.813779
 H         5.021194         1.320003         2.493614
 H         3.841193         2.583637         2.995086
 H         2.572770        -1.154982        -0.460396
 H         3.013094         1.853916        -0.745086
 H         1.039878         2.047466         1.541310
 H         0.008719        -0.720117        -1.116073
 H        -0.799185        -0.709879         0.482541
 H        -0.529806         0.912198        -0.172158
 H         1.651287        -1.288450         2.260220
