19
Iteration:    31
 C         4.140994         1.710735         2.361130
 C         3.107885         0.874065         1.704562
 O         3.240349        -0.572377         1.548795
 C         2.494556        -0.403672         0.318991
 C         2.726966         1.115676         0.360634
 C         1.575403         1.175799         1.357179
 C         1.127885        -0.204241         0.829740
 C        -0.048348        -0.041174        -0.301507
 O         0.691251        -1.203108         1.762577
 H         4.044874         1.521489         3.501720
 H         5.125080         1.621791         2.047506
 H         3.674267         2.771158         2.335181
 H         2.703703        -1.144316        -0.521029
 H         3.206917         1.819765        -0.295868
 H         0.859806         2.056676         1.523301
 H        -0.527710         0.874155        -0.102188
 H         0.229635        -0.002481        -1.295092
 H        -0.704021        -1.003124        -0.195851
 H         1.385969        -1.106027         2.546952
