19
Iteration:  2896charge 0 multiplicity 1
 C         3.749681         1.537840         2.791221
 C         3.089664         0.879213         1.638613
 O         3.428977        -0.503025         1.355166
 C         2.599511        -0.262537         0.165040
 C         2.662775         1.249215         0.221762
 C         1.596943         1.098195         1.378168
 C         1.148533        -0.178101         0.741957
 C        -0.081063        -0.160601        -0.181565
 O         0.840531        -1.128072         1.773111
 H         3.669490         0.807302         3.606152
 H         4.819800         1.834621         2.542241
 H         3.148245         2.406135         3.056244
 H         2.876909        -0.935203        -0.632145
 H         2.873137         1.908224        -0.560665
 H         0.965609         1.802868         1.940937
 H         0.106052         0.354756        -1.160871
 H        -0.270786        -1.201371        -0.397368
 H        -0.984674         0.208824         0.356248
 H         1.712426        -1.306802         2.217023
