19
Iteration:  4813charge 0 multiplicity 1
 C         3.803467         1.653947         2.801666
 C         3.106476         0.897412         1.628540
 O         3.289035        -0.551930         1.510362
 C         2.555491        -0.396814         0.209780
 C         2.871652         1.155819         0.231261
 C         1.619539         1.154371         1.279077
 C         1.127224        -0.143901         0.669999
 C         0.028384        -0.334546        -0.302522
 O         0.692751        -0.986966         1.811387
 H         4.046681         1.054340         3.786325
 H         4.745902         2.118534         2.473808
 H         3.070872         2.467446         3.120988
 H         2.685303        -1.163653        -0.550889
 H         3.142171         2.002115        -0.366044
 H         0.981683         2.008252         1.525378
 H         0.191075         0.348830        -1.217136
 H        -0.022678        -1.289428        -0.651040
 H        -0.891719        -0.255731         0.181825
 H         1.408804        -0.766519         2.422367
