19
Iteration:  4850
 C         3.642868         1.427444         2.862697
 C         3.094306         0.916732         1.594413
 O         3.490056        -0.502131         1.437513
 C         2.659745        -0.421136         0.159705
 C         2.769884         1.173318         0.110086
 C         1.580474         1.169593         1.193035
 C         1.062889        -0.137059         0.816026
 C         0.127157        -0.340826        -0.311811
 O         0.636984        -0.815201         1.977639
 H         3.919020         0.595036         3.432502
 H         4.451641         2.154504         2.795435
 H         2.865041         1.968940         3.301308
 H         2.848768        -1.218204        -0.604491
 H         2.956916         1.959030        -0.679129
 H         1.064702         2.143672         1.386299
 H         0.380385         0.136856        -1.169083
 H         0.068781        -1.468755        -0.512831
 H        -0.850427         0.111345        -0.030490
 H         1.431846        -1.013163         2.439403
