19
Iteration:  4801charge 0 multiplicity 1
 C         3.833721         1.683459         2.697963
 C         3.099081         0.913449         1.721942
 O         3.218712        -0.524427         1.573717
 C         2.638720        -0.400102         0.267964
 C         2.766788         1.125887         0.248195
 C         1.663797         1.173394         1.244291
 C         1.107526        -0.180819         0.761727
 C        -0.007641        -0.263855        -0.314778
 O         0.724434        -1.047031         1.702307
 H         3.925139         0.962713         3.596456
 H         4.864329         1.926788         2.346533
 H         3.327858         2.665554         3.009909
 H         3.134973        -1.082626        -0.425547
 H         2.966862         1.829920        -0.592570
 H         1.174388         2.030933         1.625919
 H         0.068427         0.463525        -1.197441
 H         0.085077        -1.251399        -0.654138
 H        -0.971714        -0.021811         0.124041
 H         1.518135        -1.258575         2.313372
