19
Iteration:  3663
 C         3.917314         1.867776         2.632359
 C         3.093147         0.934806         1.677792
 O         3.361243        -0.475253         1.438034
 C         2.581149        -0.367923         0.232382
 C         2.701390         1.247291         0.309373
 C         1.557273         1.086400         1.424363
 C         1.193243        -0.354405         0.818719
 C         0.055075        -0.018935        -0.210190
 O         0.640967        -1.444143         1.623883
 H         3.750391         1.444515         3.725253
 H         4.977978         1.846054         2.326659
 H         3.353626         2.821552         2.519744
 H         3.024536        -1.057454        -0.504858
 H         2.820698         1.935328        -0.597918
 H         0.863253         1.797710         1.782513
 H         0.125503         1.144861        -0.434533
 H        -0.016301        -0.822004        -1.014657
 H        -0.863457         0.048240         0.279374
 H         1.160247        -1.465162         2.395233
