19
Iteration:  3917charge 0 multiplicity 1
 C         3.820671         1.627448         2.697230
 C         3.063017         0.977760         1.683673
 O         3.457681        -0.425919         1.332340
 C         2.573673        -0.276319         0.201998
 C         2.625545         1.260411         0.367663
 C         1.545185         1.058024         1.476030
 C         1.109856        -0.246379         0.795281
 C         0.110353        -0.272032        -0.300200
 O         0.720734        -1.188294         1.718039
 H         4.137159         0.971918         3.444159
 H         4.717200         1.927767         2.181250
 H         3.286032         2.396650         3.220178
 H         2.767575        -0.925051        -0.681192
 H         2.821314         2.093274        -0.398747
 H         0.914277         1.790079         1.954168
 H         0.229845         0.302570        -1.185110
 H         0.017156        -1.309374        -0.616138
 H        -0.968158         0.079128         0.006941
 H         1.459607        -1.306760         2.295037
