19
Iteration:  1382charge 0 multiplicity 1
 C         4.013180         1.821656         2.444172
 C         3.083660         0.814398         1.751321
 O         3.405924        -0.529160         1.482142
 C         2.558230        -0.399399         0.252808
 C         2.623598         1.163762         0.409529
 C         1.577574         1.139633         1.478646
 C         1.070081        -0.290963         0.806155
 C         0.007742         0.011070        -0.261999
 O         0.622223        -1.275882         1.637357
 H         4.344064         1.437191         3.433752
 H         4.929415         1.956518         1.848656
 H         3.498096         2.774162         2.648312
 H         2.961136        -1.036626        -0.545278
 H         3.265663         1.831312        -0.173044
 H         1.101125         1.865012         1.989317
 H        -0.798691         0.452990         0.156133
 H         0.256954         0.899606        -0.915307
 H        -0.157980        -0.888070        -0.904682
 H         1.345489        -1.806729         2.074580
