19
Iteration:  2702
 C         3.963999         1.736020         2.664774
 C         3.024983         0.870865         1.772225
 O         3.432518        -0.503403         1.351344
 C         2.561298        -0.362784         0.235054
 C         2.622973         1.271253         0.369192
 C         1.597074         1.073819         1.423318
 C         1.096926        -0.305909         0.777034
 C         0.024401        -0.058795        -0.311524
 O         0.666779        -1.282449         1.726551
 H         4.193574         1.318486         3.640785
 H         4.823776         2.113784         2.049935
 H         3.501726         2.736416         2.775931
 H         2.888081        -1.002762        -0.568420
 H         2.908706         2.101677        -0.353884
 H         0.973592         1.916507         1.900909
 H         0.399500         0.735958        -1.148365
 H        -0.188314        -1.052947        -0.785559
 H        -0.923523         0.201015         0.073542
 H         1.544129        -1.462093         2.098817
