19
Iteration:  3058
 C         3.822212         1.503488         2.905607
 C         3.051470         0.956812         1.655993
 O         3.454051        -0.478324         1.368861
 C         2.538525        -0.320372         0.151841
 C         2.740786         1.264514         0.236277
 C         1.537724         1.134147         1.270456
 C         1.072531        -0.163962         0.748399
 C        -0.152284        -0.250968        -0.211474
 O         0.908068        -1.111347         1.760440
 H         3.899471         0.668691         3.585302
 H         4.821530         1.850655         2.603335
 H         3.396223         2.368559         3.380092
 H         2.906566        -1.057909        -0.583421
 H         3.058525         2.099866        -0.496959
 H         0.952569         1.889158         1.701927
 H         0.070227         0.202191        -1.163989
 H        -0.508230        -1.262540        -0.381810
 H        -1.083784         0.349944         0.266233
 H         1.781016        -1.415354         2.018186
