19
Iteration:  2216charge 0 multiplicity 1
 C         3.781727         1.482432         2.852494
 C         3.029718         0.901198         1.672866
 O         3.415768        -0.449248         1.267690
 C         2.611718        -0.313507         0.102759
 C         2.729535         1.288676         0.234477
 C         1.582128         1.108164         1.335199
 C         1.077517        -0.240388         0.773279
 C        -0.037009        -0.222293        -0.217602
 O         0.792013        -1.081273         1.877647
 H         3.317566         1.501971         3.784323
 H         4.758481         1.032147         2.808075
 H         3.928760         2.595948         2.661175
 H         2.726938        -1.020066        -0.688250
 H         2.860966         2.141076        -0.546611
 H         1.118014         1.876028         1.861675
 H         0.495270         0.441415        -0.963950
 H        -0.098792        -1.183334        -0.671239
 H        -0.978809         0.075060         0.042586
 H         1.656926        -1.283408         2.429764
