19
Iteration:  2391
 C         3.730500         1.477121         2.887674
 C         3.022064         0.920298         1.695242
 O         3.428204        -0.510680         1.282403
 C         2.583806        -0.199570         0.066840
 C         2.763833         1.248612         0.260277
 C         1.634226         1.184680         1.282494
 C         1.064885        -0.229085         0.756886
 C        -0.100507        -0.302818        -0.207659
 O         0.893606        -1.103678         1.827156
 H         3.213975         1.236013         3.788707
 H         4.732897         1.245948         3.025225
 H         3.719176         2.578330         2.700973
 H         2.806894        -0.849478        -0.818418
 H         2.847827         2.149078        -0.221843
 H         1.115842         2.147046         1.704633
 H         0.030335         0.260066        -1.112700
 H        -0.293940        -1.384291        -0.371560
 H        -0.952979         0.143627         0.370257
 H         1.667172        -1.150212         2.359828
