19
Iteration:  2722charge 0 multiplicity 1
 C         3.883179         1.791485         2.498522
 C         3.114851         0.910217         1.619130
 O         3.468184        -0.497026         1.495579
 C         2.531623        -0.348292         0.268761
 C         2.606407         1.160007         0.365651
 C         1.543734         0.971139         1.580845
 C         1.129238        -0.257146         0.881561
 C         0.100981         0.031817        -0.256360
 O         0.643145        -1.320184         1.534963
 H         4.073477         1.276798         3.442810
 H         4.912777         1.931621         2.029773
 H         3.413922         2.761202         2.573917
 H         2.885198        -0.853689        -0.611306
 H         2.803120         1.989608        -0.385524
 H         0.859880         1.770591         2.133628
 H         0.569929         0.811364        -0.944393
 H        -0.047881        -0.953105        -0.646452
 H        -0.819756         0.418236         0.166336
 H         1.060829        -1.463018         2.342470
