19
Iteration:  2659
 C         3.747447         1.394158         2.850351
 C         3.069784         0.957440         1.645613
 O         3.321472        -0.444465         1.357508
 C         2.557753        -0.316531         0.198237
 C         2.652894         1.269347         0.197946
 C         1.631857         1.203081         1.301910
 C         1.126712        -0.105899         0.791979
 C        -0.030949        -0.334509        -0.166654
 O         0.932165        -1.091345         1.722759
 H         3.461802         0.731159         3.650340
 H         4.795116         1.339903         2.469015
 H         3.741776         2.444702         3.194697
 H         2.731010        -1.028894        -0.564076
 H         2.887117         2.211147        -0.420114
 H         1.093358         2.064640         1.834636
 H         0.054883         0.440292        -1.119625
 H        -0.084849        -1.284045        -0.737718
 H        -0.969735        -0.197402         0.274764
 H         1.583329        -1.209093         2.383118
