19
Iteration:  4666charge 0 multiplicity 1
 C         3.810904         1.571446         2.805898
 C         2.994202         1.010086         1.647166
 O         3.383968        -0.464101         1.466275
 C         2.577551        -0.348968         0.283343
 C         2.714212         1.181655         0.182882
 C         1.548058         1.253836         1.217829
 C         1.134172        -0.257989         0.773928
 C         0.078897        -0.222155        -0.301276
 O         0.758982        -1.201994         1.787305
 H         3.764668         2.666588         2.931544
 H         3.399139         1.131035         3.817579
 H         4.872110         1.180666         2.784981
 H         2.698677        -1.125107        -0.473673
 H         3.010089         1.845412        -0.595161
 H         1.091406         2.239192         1.516149
 H         0.417423         0.412107        -1.067438
 H         0.075986        -1.248152        -0.839148
 H        -0.923787         0.089083         0.092088
 H         1.423696        -1.050133         2.544808
