19
Iteration:  4625
 C         3.687865         1.622222         2.833658
 C         2.980841         0.917188         1.760390
 O         3.292566        -0.550654         1.444940
 C         2.675426        -0.318727         0.151091
 C         2.839341         1.191650         0.201924
 C         1.651634         1.212958         1.287232
 C         1.161370        -0.156000         0.691579
 C        -0.094144        -0.368695        -0.220839
 O         0.865627        -1.043018         1.710843
 H         4.255622         2.405837         2.360008
 H         2.943883         2.035475         3.591803
 H         4.376824         0.777673         3.234329
 H         3.029079        -1.020693        -0.621385
 H         3.192122         1.962852        -0.399288
 H         0.938868         1.965290         1.734943
 H        -0.116521         0.362191        -0.966696
 H        -0.383618        -1.362016        -0.537089
 H        -0.867615        -0.053868         0.559941
 H         1.690476        -1.041182         2.172350
