19
Iteration:  4875charge 0 multiplicity 1
 C         3.729025         1.506905         2.915191
 C         3.110523         1.007447         1.615060
 O         3.333935        -0.465422         1.446444
 C         2.614183        -0.436242         0.279799
 C         2.799361         1.120505         0.085265
 C         1.609680         1.187318         1.151585
 C         1.069020        -0.202871         0.753987
 C         0.082033        -0.286166        -0.300512
 O         0.688492        -0.961338         1.908445
 H         4.015635         0.660262         3.465490
 H         4.595125         2.129641         2.701510
 H         3.051089         2.218279         3.443795
 H         2.813413        -1.181004        -0.502553
 H         3.099115         1.839972        -0.714149
 H         1.208016         2.104769         1.506140
 H         0.548468         0.096240        -1.258892
 H        -0.234854        -1.394257        -0.535362
 H        -0.762449         0.487563        -0.077805
 H         1.552074        -1.152053         2.379034
