19
Iteration:  1111
 C         3.975451         1.563406         2.740093
 C         3.147808         0.944516         1.663607
 O         3.417604        -0.428470         1.421739
 C         2.561913        -0.307936         0.222433
 C         2.625051         1.172825         0.208040
 C         1.546979         1.213767         1.365356
 C         1.101817        -0.247864         0.784645
 C        -0.029303        -0.151200        -0.218392
 O         0.674095        -1.280853         1.724687
 H         3.612549         1.266013         3.784314
 H         5.074190         1.489089         2.551191
 H         3.770053         2.661252         2.683771
 H         2.824557        -1.099652        -0.572927
 H         2.971845         1.917865        -0.561842
 H         0.996412         2.084251         1.679642
 H        -0.913851         0.322908         0.296277
 H         0.344288         0.477784        -1.082499
 H        -0.265305        -1.088631        -0.741101
 H         1.373592        -1.199257         2.516740
