19
Iteration:  3603
 C         3.988349         1.781961         2.675756
 C         3.048986         0.936396         1.726394
 O         3.347397        -0.472092         1.396033
 C         2.538709        -0.340470         0.141745
 C         2.538269         1.346624         0.317893
 C         1.542594         1.033166         1.434244
 C         1.110789        -0.289701         0.831599
 C         0.155149        -0.097904        -0.300862
 O         0.701271        -1.386296         1.728587
 H         3.553003         1.952314         3.597279
 H         4.857688         1.223011         2.964627
 H         4.373068         2.699565         2.216933
 H         2.996012        -0.995618        -0.636069
 H         2.703307         2.196015        -0.376743
 H         0.871393         1.824427         1.837860
 H         0.542649         0.590802        -0.954689
 H         0.141851        -1.006915        -0.876665
 H        -0.960978         0.127805         0.091340
 H         1.475217        -1.588995         2.309124
