19
Iteration:  2596
 C         3.658472         1.563486         2.815981
 C         3.160749         0.829467         1.661474
 O         3.406865        -0.520201         1.292555
 C         2.565900        -0.264686         0.120742
 C         2.633168         1.231297         0.274717
 C         1.605119         1.127417         1.343787
 C         1.138385        -0.177825         0.785793
 C        -0.054273        -0.130923        -0.154903
 O         0.900293        -1.193125         1.742388
 H         3.180351         1.503347         3.810159
 H         4.723926         1.283121         3.005830
 H         3.479459         2.700813         2.637616
 H         2.824754        -0.811598        -0.813650
 H         3.038121         2.031179        -0.427533
 H         0.961364         1.920088         1.826595
 H         0.133887         0.526469        -1.030608
 H        -0.150855        -1.178438        -0.537773
 H        -0.874357         0.202454         0.475392
 H         1.699303        -1.171679         2.402327
