19
Iteration:  2655charge 0 multiplicity 1
 C         3.742772         1.397810         2.883590
 C         3.049025         0.951290         1.620595
 O         3.339384        -0.452145         1.356497
 C         2.578852        -0.282454         0.170965
 C         2.681987         1.265026         0.197739
 C         1.623684         1.217296         1.269138
 C         1.130138        -0.098609         0.814703
 C        -0.047398        -0.353247        -0.171103
 O         0.924451        -1.093565         1.731599
 H         3.421576         0.663550         3.655607
 H         4.799964         1.209261         2.615224
 H         3.755496         2.420076         3.164019
 H         2.670581        -1.070711        -0.609975
 H         2.724334         2.130423        -0.368638
 H         1.108524         2.058976         1.735116
 H         0.074719         0.433083        -0.893954
 H        -0.094443        -1.295453        -0.681684
 H        -1.094418        -0.146867         0.263450
 H         1.723151        -1.090576         2.363843
