19
Iteration:  1166
 C         3.941154         1.870645         2.507234
 C         3.099382         0.879476         1.747101
 O         3.561625        -0.562966         1.362546
 C         2.537577        -0.362433         0.274351
 C         2.631802         1.184177         0.383415
 C         1.596191         1.004204         1.538827
 C         1.038309        -0.254353         0.858197
 C         0.120295         0.045413        -0.306202
 O         0.472732        -1.314678         1.697569
 H         4.349217         1.438826         3.440182
 H         4.854040         1.995486         1.928467
 H         3.411169         2.842068         2.514643
 H         2.760090        -1.075263        -0.569987
 H         2.774601         2.029274        -0.338260
 H         0.934396         1.648113         1.962223
 H        -0.726122         0.769659        -0.269845
 H         0.874364         0.331099        -1.015180
 H        -0.311974        -0.882128        -0.572342
 H         1.361747        -1.734004         2.017935
