19
Iteration:  2470
 C         3.833314         1.683686         2.686958
 C         3.121438         0.936680         1.703082
 O         3.483687        -0.459059         1.379698
 C         2.593304        -0.287011         0.210413
 C         2.573811         1.236623         0.308400
 C         1.585318         1.081520         1.425073
 C         1.138557        -0.285814         0.806202
 C         0.062059        -0.094218        -0.248790
 O         0.623007        -1.292530         1.690687
 H         3.783332         1.131901         3.660641
 H         4.872615         1.686406         2.340796
 H         3.577266         2.688018         2.860458
 H         3.033699        -0.913204        -0.612144
 H         2.760094         2.029942        -0.505026
 H         1.053819         1.917863         1.823712
 H         0.320612         0.772943        -0.765844
 H        -0.027689        -0.940670        -0.940243
 H        -0.975324        -0.076585         0.271229
 H         1.412987        -1.794473         2.130897
