19
Iteration:  1333
 C         3.917618         1.481177         2.741163
 C         3.068267         0.985481         1.649443
 O         3.413048        -0.483945         1.402011
 C         2.553907        -0.288774         0.245851
 C         2.681469         1.219485         0.178715
 C         1.601789         1.211269         1.309527
 C         1.057480        -0.237335         0.826872
 C        -0.044889        -0.112769        -0.232493
 O         0.773706        -1.244599         1.805067
 H         3.865802         0.842816         3.621077
 H         4.956008         1.582451         2.388250
 H         3.477362         2.487001         2.964872
 H         2.637741        -1.078894        -0.503935
 H         3.045279         1.861311        -0.668834
 H         0.886992         2.166387         1.540730
 H        -0.747256         0.744470         0.096063
 H         0.182757         0.178792        -1.191266
 H        -0.515310        -1.047982        -0.244478
 H         1.611075        -1.445907         2.144899
