19
Iteration:   151
 C         3.922534         1.527223         2.654968
 C         3.044005         0.926590         1.608028
 O         3.247801        -0.492004         1.528980
 C         2.559044        -0.341489         0.184075
 C         2.799880         1.130615         0.213548
 C         1.657960         1.224399         1.318789
 C         1.026875        -0.181334         0.766289
 C        -0.148643        -0.183067        -0.178232
 O         0.895262        -1.113948         1.790595
 H         3.660101         0.965749         3.648740
 H         4.957134         1.495371         2.382234
 H         3.522149         2.585195         2.841130
 H         2.773856        -1.071277        -0.595678
 H         3.189747         1.871683        -0.475843
 H         1.251431         2.160813         1.458992
 H         0.260844        -0.452942        -1.168064
 H        -0.829036        -0.973677         0.117031
 H        -0.839289         0.837189        -0.225641
 H         1.837076        -1.219505         2.185386
