19
Iteration:     7charge 0 multiplicity 1
 C         3.994647         1.676896         2.579679
 C         3.072205         0.853553         1.639882
 O         3.297682        -0.558970         1.482961
 C         2.497250        -0.449651         0.275119
 C         2.739146         1.110163         0.170957
 C         1.665295         1.163522         1.267540
 C         1.054719        -0.161950         0.834944
 C        -0.039747        -0.104778        -0.167302
 O         0.685328        -1.096067         1.830598
 H         4.064488         1.405097         3.684652
 H         4.978405         1.368018         2.163737
 H         3.871286         2.801521         2.499861
 H         2.838102        -1.177535        -0.518867
 H         3.031182         1.807456        -0.623034
 H         1.274922         2.134151         1.721717
 H        -0.896210         0.503480         0.169931
 H         0.359491         0.511208        -0.991879
 H        -0.161378        -1.170914        -0.570721
 H         1.512223        -1.023842         2.330941
