19
Iteration:   114
 C         3.919701         1.706905         2.617593
 C         3.145751         0.881154         1.694911
 O         3.423771        -0.543886         1.343765
 C         2.537281        -0.425781         0.175888
 C         2.691389         1.112565         0.227576
 C         1.584570         1.054549         1.428446
 C         1.087108        -0.234207         0.851099
 C         0.052673        -0.090472        -0.195404
 O         0.586724        -1.073343         1.815562
 H         3.862440         1.385086         3.626871
 H         4.997718         1.844027         2.347656
 H         3.573707         2.738141         2.500714
 H         2.716672        -1.184463        -0.658450
 H         2.936381         1.935867        -0.452345
 H         1.143191         2.112800         1.638997
 H         0.416304         0.342000        -1.140098
 H        -0.320454        -1.141687        -0.410393
 H        -0.714010         0.610915         0.076962
 H         1.407675        -1.094643         2.409851
