19
Iteration:  4948
 C         3.932328         1.835485         2.499890
 C         3.059904         0.927672         1.753799
 O         3.423496        -0.491550         1.637023
 C         2.571225        -0.463507         0.407619
 C         2.745724         1.100063         0.277035
 C         1.563984         1.174602         1.358738
 C         1.068001        -0.277757         0.848528
 C         0.122383        -0.005996        -0.374335
 O         0.549693        -1.324668         1.570266
 H         3.489346         2.033917         3.513186
 H         4.971035         1.428653         2.683282
 H         4.015110         2.767490         1.927344
 H         2.925677        -1.314396        -0.221208
 H         3.120772         1.781627        -0.547067
 H         0.878404         1.930906         1.720015
 H         0.448154         0.902347        -0.775280
 H        -0.000251        -0.779657        -1.196047
 H        -0.894602         0.090624         0.035977
 H         1.121049        -1.541017         2.381837
