19
Iteration:  2415charge 0 multiplicity 1
 C         3.683272         1.497599         2.879485
 C         3.059265         0.920357         1.612170
 O         3.313169        -0.572920         1.373534
 C         2.535435        -0.253871         0.120311
 C         2.754944         1.302097         0.217454
 C         1.577507         1.272268         1.239844
 C         1.105630        -0.122960         0.736910
 C        -0.074788        -0.221895        -0.116727
 O         1.015844        -1.198950         1.755101
 H         3.074215         1.279492         3.799458
 H         4.697058         1.178225         3.129142
 H         3.834537         2.538731         2.658148
 H         2.969770        -1.071703        -0.539524
 H         3.262243         2.063196        -0.407154
 H         0.811291         1.803745         1.870093
 H         0.088437         0.220651        -1.012895
 H        -0.219220        -1.327496        -0.159920
 H        -1.012139         0.294729         0.406098
 H         1.952373        -1.610821         2.002155
