19
Iteration:  4437
 C         3.646373         1.582144         2.806745
 C         3.069506         0.929844         1.624438
 O         3.515497        -0.433307         1.346660
 C         2.592253        -0.258975         0.162057
 C         2.708285         1.198414         0.236616
 C         1.572977         1.138122         1.238933
 C         1.121645        -0.252760         0.835945
 C         0.041371        -0.268474        -0.208219
 O         0.750619        -1.126288         1.819929
 H         4.025730         0.726180         3.442162
 H         4.616888         2.201195         2.783416
 H         2.871798         2.054392         3.401786
 H         3.035326        -0.877144        -0.614941
 H         2.881887         1.993966        -0.442338
 H         1.096317         2.012522         1.615867
 H         0.290677         0.489093        -1.013087
 H        -0.209782        -1.271246        -0.694984
 H        -0.944416        -0.036482         0.204108
 H         1.468081        -1.417154         2.376918
