19
Iteration:  3392charge 0 multiplicity 1
 C         3.906594         1.730633         2.578217
 C         3.027849         0.915346         1.768795
 O         3.520576        -0.402610         1.395569
 C         2.534846        -0.383677         0.311592
 C         2.485910         1.243021         0.320517
 C         1.533382         1.106311         1.480859
 C         1.145598        -0.228716         0.868030
 C         0.159726        -0.055504        -0.294468
 O         0.645191        -1.425710         1.591750
 H         3.922735         1.495071         3.651774
 H         4.921962         1.580808         2.251090
 H         3.660216         2.753459         2.389473
 H         2.775763        -1.109638        -0.453261
 H         2.725230         2.051357        -0.258346
 H         0.963145         1.860477         2.079734
 H         0.719329         0.487719        -1.196094
 H        -0.189530        -0.994231        -0.830766
 H        -0.649296         0.485918         0.090889
 H         1.381363        -1.557489         2.163985
