19
Iteration:  3366charge 0 multiplicity 1
 C         3.873352         1.747264         2.726322
 C         3.129685         0.984564         1.667241
 O         3.372836        -0.461468         1.416211
 C         2.604768        -0.292812         0.138180
 C         2.690347         1.236366         0.307161
 C         1.535916         1.026031         1.408539
 C         1.172841        -0.255613         0.783680
 C        -0.021029        -0.133224        -0.211939
 O         0.695977        -1.364793         1.677180
 H         3.510854         1.451825         3.725092
 H         4.951790         1.493313         2.923811
 H         3.741485         2.825876         2.468934
 H         3.075462        -0.801862        -0.715223
 H         2.803772         2.118709        -0.480736
 H         0.860431         1.621877         1.966794
 H         0.273587         0.544236        -1.008543
 H        -0.235072        -0.992070        -0.813267
 H        -0.888580         0.295717         0.395533
 H         1.388595        -1.360052         2.296702
