19
Iteration:  2458charge 0 multiplicity 1
 C         3.890960         1.660515         2.811794
 C         3.032083         0.961915         1.630239
 O         3.469820        -0.480830         1.374505
 C         2.653857        -0.332131         0.203556
 C         2.635104         1.281443         0.250935
 C         1.533159         1.080644         1.309400
 C         1.135833        -0.276996         0.798882
 C         0.001588        -0.074289        -0.223750
 O         0.712469        -1.312402         1.734156
 H         3.521962         1.220254         3.763068
 H         4.938606         1.558887         2.782406
 H         3.524919         2.653319         2.833045
 H         2.767314        -0.947799        -0.755413
 H         2.910780         2.108202        -0.476618
 H         0.846879         1.795800         1.870599
 H         0.018265         0.721640        -0.865483
 H        -0.130817        -0.963652        -0.853656
 H        -0.929614         0.220356         0.433119
 H         1.443689        -1.556969         2.239974
