19
Iteration:  1316charge 0 multiplicity 1
 C         3.827529         1.478214         2.828073
 C         3.099523         0.930046         1.598856
 O         3.419381        -0.418388         1.323166
 C         2.554521        -0.399647         0.142962
 C         2.678398         1.216378         0.213251
 C         1.609991         1.159807         1.240609
 C         1.097415        -0.160474         0.820030
 C        -0.065532        -0.172799        -0.142109
 O         0.789308        -1.087092         1.844462
 H         3.400013         0.804206         3.611452
 H         4.890448         1.160143         2.633280
 H         3.666665         2.479537         3.188183
 H         2.847016        -1.050373        -0.746749
 H         2.803229         2.068562        -0.402880
 H         1.110699         1.806416         1.804563
 H        -0.795292         0.566528         0.098616
 H         0.389848         0.124747        -1.221936
 H        -0.382814        -1.284849        -0.250236
 H         1.525182        -1.458524         2.266694
