19
Iteration:  2466charge 0 multiplicity 1
 C         3.849690         1.679522         2.728732
 C         3.079613         0.944495         1.665622
 O         3.487018        -0.484645         1.380151
 C         2.623819        -0.291876         0.210153
 C         2.567160         1.269117         0.304090
 C         1.580763         1.071149         1.377220
 C         1.133309        -0.267829         0.791264
 C         0.042849        -0.095057        -0.239752
 O         0.655161        -1.305560         1.713417
 H         3.724386         1.111287         3.627476
 H         4.910321         1.671325         2.523784
 H         3.613220         2.772853         2.847452
 H         2.985643        -0.899187        -0.624952
 H         2.799618         1.935159        -0.463314
 H         1.033790         1.977150         1.817208
 H         0.259056         0.865290        -0.770149
 H        -0.098815        -0.967578        -0.896887
 H        -0.886132        -0.006313         0.283468
 H         1.271668        -1.798328         2.195984
