19
Iteration:  1621
 C         4.154289         1.698720         2.562145
 C         3.082762         0.931974         1.803215
 O         3.407817        -0.438923         1.492325
 C         2.541787        -0.288918         0.278049
 C         2.545527         1.230555         0.367646
 C         1.502262         1.113112         1.397029
 C         1.042857        -0.290155         0.819458
 C         0.060231         0.004542        -0.265042
 O         0.677557        -1.475172         1.520402
 H         4.121220         1.583140         3.629548
 H         5.080613         1.528115         2.109600
 H         4.105827         2.785510         2.303441
 H         2.855001        -0.963536        -0.479357
 H         2.589051         2.058139        -0.254114
 H         0.739576         1.828554         1.973592
 H        -0.096211         1.009684        -0.378784
 H         0.026214        -0.638898        -1.181613
 H        -0.904013        -0.261382         0.305086
 H         1.371427        -1.377253         2.304320
