19
Iteration:  4044charge 0 multiplicity 1
 C         3.891299         1.697403         2.665498
 C         3.053083         0.957790         1.681965
 O         3.503935        -0.321971         1.392959
 C         2.597391        -0.329705         0.247588
 C         2.465882         1.244815         0.331299
 C         1.520546         0.999313         1.599183
 C         1.108987        -0.272958         0.826642
 C         0.117508        -0.096454        -0.323750
 O         0.695557        -1.395062         1.596616
 H         3.766832         1.649412         3.833185
 H         4.982499         1.440588         2.519217
 H         4.029851         2.760416         2.343011
 H         2.888311        -0.930063        -0.601902
 H         2.723393         2.097555        -0.347191
 H         0.972641         1.864900         1.872273
 H         0.413703         0.449292        -1.301469
 H        -0.049177        -1.142518        -0.672128
 H        -0.863692         0.088512        -0.100718
 H         1.298454        -1.475311         2.369378
