19
Iteration:   396charge 0 multiplicity 1
 C         3.776894         1.459855         2.876552
 C         3.153133         0.927579         1.590390
 O         3.373659        -0.451671         1.372732
 C         2.548552        -0.285579         0.108349
 C         2.700338         1.253191         0.140802
 C         1.584100         1.234529         1.241691
 C         1.111349        -0.193972         0.807149
 C        -0.092544        -0.203436        -0.109104
 O         0.856768        -1.184484         1.829919
 H         3.362624         0.945907         3.772900
 H         4.850171         1.196016         2.895705
 H         3.798370         2.534692         2.907173
 H         2.825201        -1.019081        -0.715230
 H         2.867736         2.017912        -0.655045
 H         1.067069         2.006516         1.625695
 H        -0.889001         0.531371         0.152048
 H         0.281292        -0.018190        -1.167363
 H        -0.628881        -1.144570        -0.014172
 H         1.813981        -1.435841         2.169596
