19
Iteration:   999
 C         3.913816         1.611300         2.687147
 C         3.091202         0.926293         1.656387
 O         3.396455        -0.461831         1.363965
 C         2.512982        -0.414802         0.264677
 C         2.585527         1.193308         0.228754
 C         1.590334         1.128950         1.386058
 C         1.133178        -0.234410         0.845594
 C         0.065348        -0.021905        -0.249073
 O         0.702373        -1.238825         1.750203
 H         3.835882         1.064669         3.665363
 H         5.072809         1.702624         2.406827
 H         3.598719         2.675718         2.773452
 H         2.861322        -1.150364        -0.489891
 H         2.961733         1.952746        -0.416504
 H         0.946299         1.999958         1.579914
 H        -0.890376         0.382655        -0.008568
 H         0.618394         0.470604        -1.095299
 H        -0.199868        -1.139319        -0.601035
 H         1.315059        -1.279796         2.610754
