19
Iteration:  4362charge 0 multiplicity 1
 C         3.849399         1.621269         2.777573
 C         2.987475         1.047086         1.686130
 O         3.330782        -0.362269         1.413043
 C         2.511454        -0.308447         0.174407
 C         2.666487         1.262107         0.302378
 C         1.538625         1.097100         1.305900
 C         1.091667        -0.290925         0.818909
 C         0.118211        -0.225926        -0.288790
 O         0.871149        -1.326164         1.776692
 H         3.423942         1.719045         3.732380
 H         4.731906         0.909938         2.783207
 H         4.194802         2.605775         2.473155
 H         2.762472        -1.034448        -0.624153
 H         2.921108         1.934722        -0.466478
 H         0.875994         1.923976         1.541923
 H         0.419911         0.613171        -0.972143
 H        -0.178221        -1.115682        -0.947199
 H        -0.836523         0.309523         0.050856
 H         1.705978        -1.541752         2.166798
