19
Iteration:  4499charge 0 multiplicity 1
 C         3.908611         1.857499         2.569797
 C         2.984574         0.894947         1.784612
 O         3.318673        -0.490144         1.531472
 C         2.599471        -0.376342         0.288275
 C         2.728556         1.252589         0.300379
 C         1.580140         1.117401         1.421454
 C         1.139045        -0.212027         0.797363
 C        -0.005307        -0.174863        -0.290782
 O         0.733316        -1.355213         1.565610
 H         4.779597         1.168172         2.957474
 H         4.307247         2.604346         1.898933
 H         3.312420         2.327918         3.365226
 H         2.993421        -1.100868        -0.444195
 H         3.304305         2.027244        -0.126845
 H         0.920688         1.855928         1.928513
 H         0.105288         0.780853        -0.948484
 H         0.029399        -1.054722        -0.870528
 H        -0.868020        -0.014234         0.261935
 H         1.470262        -1.649568         2.059840
