19
Iteration:  1665
 C         3.871928         1.654709         2.713110
 C         3.112638         0.869749         1.681518
 O         3.390892        -0.553690         1.378744
 C         2.530801        -0.304206         0.193191
 C         2.616192         1.293313         0.309401
 C         1.590570         1.070981         1.447429
 C         1.132406        -0.229987         0.811061
 C        -0.055363        -0.039219        -0.189767
 O         0.838734        -1.273400         1.612393
 H         3.500196         1.361752         3.685352
 H         4.908532         1.676899         2.550073
 H         3.597714         2.751120         2.554790
 H         2.689030        -0.904313        -0.658737
 H         2.686688         2.028430        -0.470341
 H         1.102441         1.937367         2.106143
 H         0.428688         0.295433        -1.084662
 H        -0.520401        -1.098492        -0.353007
 H        -0.854038         0.690431         0.147773
 H         1.615680        -1.560824         2.156019
