19
Iteration:  1909
 C         3.864604         1.511721         2.766969
 C         3.043623         0.929073         1.658107
 O         3.350849        -0.530933         1.385878
 C         2.505183        -0.280811         0.135787
 C         2.665590         1.309022         0.268463
 C         1.578215         1.148707         1.369492
 C         1.056747        -0.193514         0.822368
 C        -0.013777        -0.195998        -0.243321
 O         0.900497        -1.172405         1.761950
 H         3.825108         0.798587         3.620641
 H         4.969470         1.657634         2.567369
 H         3.384461         2.419540         3.043768
 H         2.614487        -1.012609        -0.715212
 H         3.101709         2.089358        -0.405632
 H         1.145623         2.080040         1.813506
 H         0.326694         0.331596        -1.210017
 H        -0.276631        -1.321220        -0.384397
 H        -0.883338         0.360866        -0.025980
 H         1.781710        -1.151985         2.083314
