19
Iteration:  1172
 C         3.985004         1.869616         2.508815
 C         3.082168         0.870112         1.714298
 O         3.527935        -0.556886         1.394621
 C         2.530192        -0.376008         0.277691
 C         2.655855         1.206109         0.353514
 C         1.581504         0.980712         1.558777
 C         1.065313        -0.254109         0.863519
 C         0.106232         0.019550        -0.306524
 O         0.493871        -1.313178         1.685843
 H         4.233351         1.635052         3.556709
 H         4.843440         2.062823         1.785844
 H         3.419206         2.785619         2.695161
 H         2.660510        -1.097691        -0.542816
 H         2.748906         2.080227        -0.273690
 H         1.015176         1.879804         2.117347
 H        -0.545649         0.894732        -0.178630
 H         0.578016         0.511895        -1.269594
 H        -0.239502        -1.013450        -0.740007
 H         1.272103        -1.886727         2.015736
