19
Iteration:  4828
 C         3.692765         1.603146         2.841110
 C         3.084311         0.852782         1.706582
 O         3.421233        -0.558705         1.366398
 C         2.558185        -0.387600         0.174973
 C         2.854681         1.200154         0.234090
 C         1.635723         1.229766         1.111538
 C         1.084789        -0.174193         0.823753
 C         0.054903        -0.355964        -0.345298
 O         0.660186        -0.917539         1.925434
 H         3.969293         0.815068         3.489767
 H         4.592148         2.170510         2.618838
 H         3.047754         2.277930         3.308713
 H         2.834621        -1.132471        -0.596527
 H         3.469861         1.737964        -0.486851
 H         1.107377         2.055187         1.672951
 H         0.160505         0.227228        -1.192490
 H         0.083819        -1.447623        -0.722376
 H        -0.990706        -0.141688         0.006309
 H         1.252128        -0.815571         2.757208
