19
Iteration:  2027charge 0 multiplicity 1
 C         3.982935         1.663251         2.587116
 C         3.069959         0.976713         1.680500
 O         3.368256        -0.461636         1.483799
 C         2.567093        -0.306013         0.213149
 C         2.577728         1.241417         0.375990
 C         1.526581         1.081167         1.481501
 C         1.078361        -0.277047         0.827438
 C         0.041938        -0.042293        -0.254190
 O         0.768764        -1.385182         1.603344
 H         4.003717         1.287246         3.633284
 H         4.924581         1.330076         2.136681
 H         3.927401         2.695173         2.516821
 H         2.742960        -1.022759        -0.693128
 H         2.799685         2.088176        -0.345105
 H         0.950495         2.041298         1.862975
 H         0.294824         0.809838        -0.785909
 H        -0.000166        -0.889974        -0.958588
 H        -0.965266         0.126423         0.043298
 H         1.404999        -1.234974         2.347829
