19
Iteration:  2555charge 0 multiplicity 1
 C         4.004820         1.711261         2.648540
 C         3.044163         0.928201         1.706456
 O         3.427764        -0.425555         1.491591
 C         2.600346        -0.287505         0.236525
 C         2.513492         1.208905         0.334340
 C         1.520304         1.093292         1.449038
 C         1.152538        -0.280099         0.819041
 C         0.043389        -0.075346        -0.252354
 O         0.698885        -1.354426         1.572388
 H         4.084131         1.127099         3.581409
 H         5.019638         1.736848         2.301038
 H         3.513520         2.702430         2.790647
 H         2.924515        -1.102150        -0.515665
 H         2.731810         1.920913        -0.529846
 H         0.990262         1.976933         1.787492
 H         0.236767         0.693457        -0.910978
 H        -0.277477        -0.978985        -0.820212
 H        -0.903874         0.352642         0.294209
 H         1.517960        -1.801022         1.789295
