19
Iteration:  2883charge 0 multiplicity 1
 C         3.728002         1.461436         2.885490
 C         3.100695         0.954455         1.632061
 O         3.467614        -0.398586         1.293604
 C         2.522216        -0.393857         0.102719
 C         2.765097         1.299505         0.243716
 C         1.640943         1.151507         1.250770
 C         1.069620        -0.243036         0.775313
 C        -0.142676        -0.237023        -0.159088
 O         0.867611        -1.133231         1.790216
 H         3.744366         0.727694         3.717863
 H         4.793395         1.794759         2.853476
 H         3.163688         2.288227         3.263535
 H         2.860779        -1.108591        -0.649533
 H         3.174541         2.096183        -0.397209
 H         1.088547         1.942628         1.923841
 H         0.052159         0.363472        -1.003351
 H        -0.380367        -1.233801        -0.540250
 H        -1.095746         0.302506         0.317259
 H         1.450559        -0.841098         2.476419
