19
Iteration:  2770charge 0 multiplicity 1
 C         4.034649         1.789173         2.566878
 C         3.104923         0.970216         1.729591
 O         3.519873        -0.438832         1.495941
 C         2.612238        -0.318321         0.311783
 C         2.547211         1.177594         0.325830
 C         1.570098         1.017786         1.495582
 C         1.042476        -0.292870         0.764056
 C        -0.017052        -0.019572        -0.238605
 O         0.571832        -1.377627         1.546101
 H         3.729847         1.555691         3.604159
 H         5.074242         1.486694         2.440705
 H         3.960453         2.907424         2.324320
 H         2.890326        -1.059143        -0.468504
 H         2.778437         1.819775        -0.453954
 H         0.999551         1.755565         1.865722
 H         0.473901         0.833999        -0.805938
 H        -0.217491        -1.013222        -0.748122
 H        -0.942401         0.366656         0.273339
 H         1.460496        -1.747670         1.922678
