19
Iteration:  3571charge 0 multiplicity 1
 C         3.838725         1.575541         2.735362
 C         2.999489         0.899096         1.630545
 O         3.459795        -0.401842         1.384843
 C         2.538829        -0.352805         0.222961
 C         2.609645         1.348422         0.350379
 C         1.545918         1.144854         1.370063
 C         1.082505        -0.202563         0.788206
 C         0.012906        -0.232274        -0.276554
 O         0.873957        -1.253872         1.716120
 H         3.300259         1.625201         3.616184
 H         4.582102         0.815998         2.946910
 H         4.302661         2.506933         2.456010
 H         2.800955        -1.097348        -0.549769
 H         2.993664         2.080608        -0.377710
 H         0.885633         1.935161         1.763812
 H         0.224818         0.325545        -1.110583
 H        -0.232465        -1.253368        -0.495032
 H        -0.987171         0.321232         0.023044
 H         1.670740        -1.192979         2.344836
