19
Iteration:  3651
 C         3.931243         1.883154         2.615395
 C         3.180804         0.993314         1.712578
 O         3.457840        -0.434245         1.466200
 C         2.577993        -0.416658         0.288121
 C         2.623365         1.187165         0.352312
 C         1.616166         0.977896         1.450022
 C         1.088221        -0.318089         0.786088
 C        -0.040605        -0.054402        -0.256403
 O         0.625170        -1.396970         1.556382
 H         3.663077         1.768360         3.732245
 H         5.046517         1.829498         2.568642
 H         3.768143         2.938896         2.398167
 H         2.820749        -1.024411        -0.585005
 H         2.677512         2.046671        -0.361024
 H         1.063321         1.804825         1.866734
 H         0.197512         1.001412        -0.745782
 H        -0.129499        -0.637502        -1.224015
 H        -0.941308        -0.156637         0.321753
 H         1.194533        -1.577592         2.375020
