19
Iteration:  2133charge 0 multiplicity 1
 C         3.788024         1.596891         2.757430
 C         3.031340         0.871977         1.693364
 O         3.457236        -0.428554         1.409316
 C         2.565606        -0.377505         0.225376
 C         2.665326         1.246340         0.190901
 C         1.622382         1.058988         1.337063
 C         1.077838        -0.236859         0.765814
 C        -0.029303        -0.073220        -0.199815
 O         0.787369        -1.191553         1.730291
 H         3.728254         0.939686         3.722661
 H         4.857683         1.592637         2.479748
 H         3.438350         2.659535         2.900974
 H         2.972998        -1.034187        -0.582876
 H         2.984705         2.009351        -0.546190
 H         0.987404         1.801627         1.848933
 H         0.197272         0.681458        -0.928188
 H        -0.078658        -1.029305        -0.806974
 H        -0.999119         0.291558         0.418289
 H         1.756822        -1.294526         2.103613
