19
Iteration:  1261
 C         3.794175         1.529537         2.798721
 C         3.072764         0.837571         1.650074
 O         3.345714        -0.544985         1.293466
 C         2.497307        -0.332600         0.161191
 C         2.766463         1.286261         0.247062
 C         1.638880         1.203097         1.327706
 C         1.108207        -0.135097         0.727383
 C        -0.083518        -0.250592        -0.176211
 O         0.855963        -1.059829         1.872620
 H         3.282195         1.312614         3.771452
 H         4.873765         1.154543         2.926212
 H         3.774309         2.577144         2.569028
 H         2.772307        -1.005776        -0.722271
 H         3.206104         1.920185        -0.528943
 H         1.115976         2.040020         1.730243
 H        -0.994260        -0.372818         0.417285
 H        -0.206873         0.739696        -0.848555
 H         0.133286        -1.247250        -0.823768
 H         1.699669        -1.357747         2.106575
