19
Iteration:  4880charge 0 multiplicity 1
 C         3.749621         1.537114         2.887555
 C         3.071507         0.986602         1.611850
 O         3.353217        -0.492781         1.495391
 C         2.613216        -0.420260         0.230079
 C         2.817730         1.123096         0.111632
 C         1.611839         1.205058         1.145399
 C         1.042713        -0.173084         0.807481
 C         0.071393        -0.267395        -0.313064
 O         0.700815        -1.006346         1.881741
 H         4.053796         0.644321         3.575476
 H         4.662175         2.136770         2.678073
 H         3.050021         2.222547         3.377785
 H         2.870864        -1.241404        -0.452591
 H         3.054837         1.782856        -0.700769
 H         1.105361         2.196313         1.343437
 H         0.551460         0.079465        -1.283017
 H        -0.328896        -1.212403        -0.487932
 H        -0.781222         0.324745        -0.104711
 H         1.572229        -1.097987         2.340035
