19
Iteration:  1804
 C         3.931156         1.784652         2.601210
 C         3.145697         0.856985         1.753062
 O         3.452188        -0.507980         1.377544
 C         2.545324        -0.339088         0.240905
 C         2.612668         1.223460         0.351538
 C         1.643139         1.086112         1.472191
 C         1.111950        -0.315110         0.825088
 C         0.014298        -0.011477        -0.294231
 O         0.566632        -1.370411         1.668985
 H         3.783841         1.722215         3.669227
 H         5.007788         1.599409         2.326132
 H         3.863506         2.898984         2.395754
 H         2.867971        -0.856756        -0.619660
 H         3.079903         2.049164        -0.232465
 H         0.901690         1.998711         1.742439
 H         0.085686         1.129609        -0.379419
 H         0.035166        -0.242228        -1.270430
 H        -0.966022        -0.302880         0.087826
 H         1.397678        -1.648965         2.227548
