19
Iteration:  2790charge 0 multiplicity 1
 C         3.912251         1.658995         2.593243
 C         3.049685         0.930584         1.716470
 O         3.347459        -0.470892         1.418178
 C         2.541659        -0.368572         0.217973
 C         2.675815         1.302236         0.322241
 C         1.573390         1.080653         1.466027
 C         1.182950        -0.240850         0.826720
 C         0.049482        -0.087135        -0.248533
 O         0.725938        -1.302496         1.650079
 H         3.741427         1.538307         3.664756
 H         4.921073         1.225399         2.500371
 H         3.751155         2.733669         2.294541
 H         2.790524        -0.990056        -0.643347
 H         2.761323         2.156848        -0.275252
 H         0.928931         1.796596         1.879405
 H        -0.019715         0.797700        -1.076674
 H        -0.002677        -1.112209        -0.713301
 H        -0.865842         0.083770         0.231445
 H         1.411099        -1.434818         2.402922
