19
Iteration:   827
 C         3.857840         1.434436         2.760515
 C         3.028233         0.875696         1.675621
 O         3.261959        -0.474957         1.438283
 C         2.558836        -0.278522         0.239263
 C         2.779795         1.308416         0.183829
 C         1.598898         1.255311         1.197226
 C         1.103372        -0.174488         0.784962
 C        -0.065413        -0.260890        -0.187193
 O         0.870926        -1.132669         1.791046
 H         3.803248         0.853217         3.698168
 H         4.941207         1.282878         2.425761
 H         3.584199         2.439743         2.927787
 H         2.779235        -1.116185        -0.551693
 H         2.981282         2.141341        -0.548494
 H         1.095873         2.052868         1.657088
 H        -0.920044        -0.030120         0.407388
 H        -0.084874         0.493778        -1.012049
 H        -0.052781        -1.274242        -0.689214
 H         1.819342        -1.297596         2.252233
