19
Iteration:  2355
 C         3.877637         1.533083         2.769685
 C         3.067567         0.955715         1.687097
 O         3.468329        -0.413238         1.296784
 C         2.503545        -0.319124         0.183257
 C         2.662489         1.248017         0.225519
 C         1.555640         1.120749         1.382836
 C         1.160489        -0.221904         0.826441
 C         0.090946        -0.224339        -0.256944
 O         0.647171        -1.194757         1.806926
 H         3.714977         0.911544         3.641943
 H         4.952249         1.566881         2.468239
 H         3.500097         2.528646         3.029631
 H         2.821085        -1.008261        -0.559486
 H         2.727655         2.230546        -0.364320
 H         0.986328         1.912861         1.775148
 H         0.323534         0.694605        -0.973685
 H        -0.071878        -1.110545        -0.876127
 H        -0.856728        -0.103956         0.165917
 H         1.449069        -1.263305         2.303447
