19
Iteration:   381charge 0 multiplicity 1
 C         3.808288         1.522009         2.867873
 C         3.081187         1.015392         1.627630
 O         3.418196        -0.463332         1.225846
 C         2.506503        -0.378284         0.168931
 C         2.634979         1.245200         0.186150
 C         1.704215         1.092007         1.309264
 C         1.148086        -0.182758         0.803342
 C        -0.065253        -0.190150        -0.149964
 O         0.835202        -1.110348         1.802354
 H         3.108093         0.989143         3.797944
 H         4.818495         1.036140         2.958959
 H         3.588425         2.585877         3.150914
 H         2.678846        -1.132984        -0.560906
 H         2.956377         2.031318        -0.437353
 H         1.012620         1.988596         1.691985
 H        -0.773264         0.646849         0.084964
 H         0.061247        -0.258947        -1.237624
 H        -0.522114        -1.172928         0.101222
 H         1.624046        -1.270739         2.314763
