19
Iteration:  2593
 C         3.682047         1.595839         2.809953
 C         3.158628         0.835670         1.665809
 O         3.394378        -0.521035         1.294695
 C         2.573997        -0.269196         0.112533
 C         2.652483         1.257305         0.259123
 C         1.593807         1.137175         1.365890
 C         1.119788        -0.206715         0.788199
 C        -0.054406        -0.137585        -0.161087
 O         0.903915        -1.215803         1.735752
 H         3.174676         1.486012         3.773399
 H         4.762812         1.341412         2.978630
 H         3.519457         2.677490         2.735204
 H         2.704583        -0.921613        -0.712255
 H         3.076932         1.990337        -0.379568
 H         1.002737         1.951104         1.903458
 H         0.211172         0.579149        -1.064930
 H        -0.247799        -1.121506        -0.611852
 H        -0.803937         0.219356         0.468851
 H         1.531735        -1.231008         2.414222
