19
Iteration:  2502charge 0 multiplicity 1
 C         4.009253         1.889398         2.564545
 C         3.161590         0.934416         1.709220
 O         3.438083        -0.575557         1.382692
 C         2.517659        -0.301519         0.331734
 C         2.501591         1.251216         0.431765
 C         1.541386         1.089327         1.583372
 C         1.087726        -0.306527         0.856482
 C         0.162160        -0.067316        -0.396820
 O         0.592310        -1.407890         1.576242
 H         4.444556         1.258509         3.353193
 H         4.838683         2.054834         1.951424
 H         3.544926         2.719121         3.004573
 H         2.740882        -0.990296        -0.547945
 H         2.794127         2.076550        -0.311542
 H         0.939225         1.777622         2.143341
 H         0.308318         0.802398        -0.920119
 H         0.415202        -0.826718        -1.132606
 H        -0.962829        -0.049182        -0.105116
 H         1.082905        -1.232424         2.346691
