19
Iteration:   209
 C         3.824192         1.609394         2.697915
 C         3.141089         0.877520         1.615533
 O         3.457767        -0.530809         1.346608
 C         2.532570        -0.375526         0.178422
 C         2.677120         1.233762         0.207064
 C         1.594830         1.073218         1.390450
 C         1.101395        -0.192409         0.819818
 C        -0.019101        -0.144077        -0.208654
 O         0.710652        -1.076350         1.827151
 H         3.505361         1.312258         3.701365
 H         5.006699         1.416500         2.775046
 H         3.639350         2.681428         2.554396
 H         2.674550        -1.078100        -0.630526
 H         2.947760         2.015887        -0.518128
 H         1.154099         1.832611         2.126681
 H        -0.086739        -1.154974        -0.748273
 H        -1.006170        -0.012198         0.363066
 H         0.123198         0.617511        -0.995108
 H         1.537321        -1.162262         2.268537
