19
Iteration:  3577charge 0 multiplicity 1
 C         3.857532         1.608626         2.697513
 C         3.050539         0.931538         1.676437
 O         3.440999        -0.410993         1.375958
 C         2.488520        -0.321078         0.248152
 C         2.594766         1.293807         0.334418
 C         1.507833         1.099319         1.415190
 C         1.054090        -0.234566         0.797500
 C         0.012910        -0.198360        -0.328286
 O         0.902672        -1.255614         1.708219
 H         3.376900         1.590732         3.776726
 H         4.640633         0.885307         3.056155
 H         4.415510         2.536005         2.368345
 H         2.940069        -1.033330        -0.480329
 H         2.939363         2.005965        -0.480457
 H         0.980820         1.943775         1.804372
 H         0.372504         0.423431        -1.266542
 H        -0.242841        -1.228942        -0.693186
 H        -0.843684         0.259465         0.087000
 H         1.541203        -1.130801         2.474183
