19
Iteration:  4190charge 0 multiplicity 1
 C         3.688093         1.499451         2.916596
 C         3.041886         0.954017         1.678019
 O         3.355272        -0.443635         1.273637
 C         2.604414        -0.249356         0.081897
 C         2.749569         1.323433         0.271527
 C         1.540347         1.136140         1.208590
 C         1.157958        -0.235157         0.770786
 C        -0.038104        -0.278912        -0.192184
 O         0.938360        -1.178621         1.858119
 H         3.142886         1.069666         3.763911
 H         4.848321         1.505119         3.092463
 H         3.408333         2.623181         2.873527
 H         2.814660        -0.858544        -0.846799
 H         3.034909         2.154917        -0.436652
 H         0.920416         1.967132         1.765150
 H         0.030641         0.105461        -1.121425
 H         0.033365        -1.350473        -0.480864
 H        -1.138117        -0.093442         0.118232
 H         1.698611        -1.221843         2.422944
