19
Iteration:  4954charge 0 multiplicity 1
 C         3.952721         1.841371         2.520377
 C         3.033717         0.939906         1.703459
 O         3.431803        -0.456061         1.584728
 C         2.574901        -0.495541         0.449561
 C         2.720438         1.068724         0.275488
 C         1.585336         1.172675         1.396083
 C         1.108456        -0.249411         0.853261
 C         0.127469        -0.004323        -0.350889
 O         0.529970        -1.326445         1.570711
 H         3.386789         2.071407         3.463315
 H         4.886632         1.384899         2.806996
 H         4.130284         2.758200         1.956246
 H         2.825373        -1.336787        -0.187457
 H         3.026287         1.686196        -0.552968
 H         0.767384         1.791690         1.856740
 H         0.631742         0.938867        -0.943272
 H         0.150007        -0.664675        -1.206074
 H        -0.959685        -0.028991        -0.175219
 H         0.940555        -1.630968         2.420352
