19
Iteration:  1039
 C         3.789952         1.525866         2.825569
 C         3.114305         0.897189         1.667938
 O         3.459825        -0.478437         1.276696
 C         2.614912        -0.407339         0.121855
 C         2.780372         1.198648         0.212768
 C         1.612424         1.199430         1.302376
 C         1.046431        -0.151385         0.844115
 C        -0.103347        -0.208256        -0.205876
 O         0.725581        -1.076506         1.860438
 H         3.354696         1.135098         3.705734
 H         4.815472         1.556159         2.770794
 H         3.436674         2.592614         2.837719
 H         2.892931        -1.128889        -0.595726
 H         3.239028         1.900388        -0.552425
 H         1.053878         2.006597         1.604937
 H        -1.008414        -0.350770         0.443614
 H        -0.230516         0.636029        -0.811915
 H         0.056516        -0.997832        -0.907330
 H         1.580331        -1.379171         2.170358
