19
Iteration:  4440
 C         3.657510         1.572957         2.805585
 C         3.045493         0.938988         1.631180
 O         3.529220        -0.411695         1.359523
 C         2.564989        -0.300705         0.170456
 C         2.702749         1.183777         0.217269
 C         1.587996         1.110262         1.261453
 C         1.131779        -0.225403         0.819119
 C         0.058400        -0.238018        -0.225886
 O         0.748645        -1.128686         1.818826
 H         3.981840         0.799518         3.378355
 H         4.508197         2.249121         2.811644
 H         2.907286         2.054082         3.440637
 H         3.017847        -0.904649        -0.608460
 H         2.837985         1.961062        -0.578727
 H         1.052983         1.931297         1.683492
 H         0.239238         0.473654        -0.959583
 H        -0.163289        -1.227371        -0.712115
 H        -0.978675        -0.016821         0.294949
 H         1.584228        -1.434306         2.328653
