19
Iteration:  4053charge 0 multiplicity 1
 C         4.012297         1.774437         2.630349
 C         3.014858         0.978469         1.737833
 O         3.474315        -0.340323         1.392037
 C         2.527361        -0.336667         0.283901
 C         2.485844         1.261440         0.349294
 C         1.517205         1.016547         1.544888
 C         1.101440        -0.303088         0.836862
 C         0.113620        -0.138563        -0.384807
 O         0.702925        -1.434792         1.586516
 H         3.750796         1.446109         3.736803
 H         5.001280         1.330902         2.342548
 H         3.981993         2.917868         2.589096
 H         2.860368        -0.956347        -0.546571
 H         2.636713         2.145306        -0.335446
 H         0.797117         1.635743         2.156278
 H         0.741172         0.641978        -1.034439
 H         0.077758        -1.114099        -0.892674
 H        -0.744784         0.396864         0.006591
 H         1.199970        -1.343623         2.425164
