19
Iteration:  1530
 C         3.819497         1.498307         2.819631
 C         3.138302         0.912959         1.597491
 O         3.396278        -0.450602         1.382101
 C         2.581531        -0.334387         0.177252
 C         2.680501         1.206913         0.162869
 C         1.625242         1.158004         1.295970
 C         1.126719        -0.222876         0.811407
 C        -0.065545        -0.128497        -0.154930
 O         0.754977        -1.152320         1.767153
 H         3.626036         0.763220         3.571530
 H         4.884018         1.794488         2.730206
 H         3.356556         2.387551         3.048890
 H         2.947108        -1.092902        -0.585339
 H         2.944689         2.055387        -0.493889
 H         1.085957         1.993971         1.544116
 H        -0.931897         0.249611         0.502586
 H         0.120131         0.465470        -0.958778
 H        -0.490920        -1.012630        -0.515286
 H         1.580939        -1.304549         2.333032
