19
Iteration:  1602
 C         4.065622         1.711802         2.515939
 C         3.092378         0.981094         1.693155
 O         3.393770        -0.459034         1.459948
 C         2.564390        -0.307772         0.275890
 C         2.595650         1.242911         0.388346
 C         1.580394         1.015790         1.640016
 C         1.122701        -0.236345         0.843744
 C        -0.020792        -0.102829        -0.304270
 O         0.618737        -1.339037         1.539835
 H         3.999125         1.346114         3.578820
 H         5.074846         1.617092         2.099806
 H         3.962211         2.866766         2.466124
 H         2.750205        -0.972851        -0.534719
 H         2.840312         2.020349        -0.307251
 H         0.997967         1.881350         2.032835
 H        -0.286915         0.911119        -0.471536
 H         0.511244        -0.473420        -1.283511
 H        -1.013072        -0.633841        -0.239552
 H         1.367819        -1.718148         2.119892
