19
Iteration:  3953
 C         3.736774         1.529478         2.945860
 C         3.047433         1.034022         1.661609
 O         3.359564        -0.421234         1.337817
 C         2.574509        -0.256725         0.126887
 C         2.784253         1.259812         0.238834
 C         1.554245         1.155772         1.219963
 C         1.125612        -0.263748         0.780257
 C        -0.095308        -0.285050        -0.175521
 O         0.890483        -1.225564         1.769175
 H         3.702063         0.646970         3.655249
 H         4.738611         1.793082         2.546388
 H         3.459284         2.557793         3.243209
 H         3.028705        -0.814299        -0.708452
 H         2.831587         1.976287        -0.506476
 H         1.088813         2.110229         1.462126
 H         0.041370         0.538320        -0.819245
 H         0.016482        -1.193813        -0.759821
 H        -0.956729        -0.274983         0.489213
 H         1.734026        -1.334186         2.194773
