19
Iteration:  1563charge 0 multiplicity 1
 C         3.870307         1.667174         2.690624
 C         3.148079         0.884157         1.659099
 O         3.469379        -0.527173         1.271361
 C         2.563484        -0.325213         0.204468
 C         2.589187         1.198935         0.311457
 C         1.533157         1.094989         1.438049
 C         1.065039        -0.291481         0.875748
 C         0.087193        -0.049161        -0.301224
 O         0.699642        -1.216043         1.789421
 H         3.943457         1.097996         3.603979
 H         4.941060         1.850960         2.439956
 H         3.243292         2.449119         2.878568
 H         2.700996        -1.055258        -0.677184
 H         2.902159         2.142062        -0.252944
 H         0.914713         1.869280         1.721328
 H        -0.393405         1.007482        -0.017766
 H         0.514013         0.128830        -1.201657
 H        -0.676352        -0.763741        -0.356879
 H         1.344089        -1.260443         2.435815
