19
Iteration:  1991charge 0 multiplicity 1
 C         3.737242         1.633581         2.847701
 C         3.106891         0.893255         1.667324
 O         3.363606        -0.555718         1.250276
 C         2.556796        -0.280049         0.043440
 C         2.775782         1.238162         0.314537
 C         1.620357         1.165417         1.309821
 C         1.097577        -0.193831         0.850819
 C        -0.103239        -0.195964        -0.154223
 O         0.860875        -1.193529         1.781624
 H         3.357901         1.283605         3.847447
 H         4.779812         1.420693         2.736361
 H         3.665076         2.776367         2.871279
 H         2.789532        -0.837785        -0.871095
 H         3.091418         2.084174        -0.275037
 H         1.174095         1.991134         1.695543
 H         0.063245         0.717439        -0.758776
 H        -0.120747        -1.020100        -0.847802
 H        -1.100355        -0.206123         0.479661
 H         1.628736        -1.614585         2.139780
