19
Iteration:  2251charge 0 multiplicity 1
 C         3.882926         1.690422         2.692211
 C         3.124340         0.960346         1.647644
 O         3.439567        -0.499754         1.432632
 C         2.544389        -0.364126         0.235019
 C         2.581555         1.157863         0.248713
 C         1.603849         1.134428         1.451531
 C         1.060153        -0.224915         0.880366
 C         0.063762        -0.061179        -0.224651
 O         0.694509        -1.287355         1.615556
 H         3.727912         1.210167         3.695196
 H         4.960013         1.663384         2.553632
 H         3.618543         2.777056         2.557978
 H         2.913249        -1.093507        -0.521840
 H         2.697975         1.628736        -0.708080
 H         1.045511         1.955078         1.972514
 H         0.442789         0.586475        -0.962233
 H        -0.169104        -1.002454        -0.720210
 H        -0.856249         0.515874         0.100786
 H         1.554115        -1.429527         2.178445
