19
Iteration:  4239
 C         3.958212         1.657551         2.753588
 C         3.071028         0.975079         1.707280
 O         3.354246        -0.376463         1.403678
 C         2.582003        -0.261532         0.155559
 C         2.586674         1.321165         0.368301
 C         1.495060         1.100074         1.354344
 C         1.030645        -0.291138         0.813342
 C         0.067458        -0.307487        -0.299479
 O         0.823855        -1.308870         1.716103
 H         3.368817         1.876726         3.708417
 H         4.772119         1.017654         3.002795
 H         4.434778         2.603953         2.499776
 H         2.862798        -0.983814        -0.614808
 H         2.946638         2.154654        -0.237815
 H         0.725040         1.757376         1.662777
 H         0.269742         0.443594        -1.285637
 H        -0.182495        -1.281501        -0.807118
 H        -0.851677         0.223227        -0.084654
 H         1.723047        -1.434900         2.094262
