19
Iteration:  3638
 C         3.941203         1.884318         2.616721
 C         3.098807         0.905312         1.706686
 O         3.596354        -0.440921         1.497183
 C         2.588712        -0.355698         0.262023
 C         2.565891         1.157894         0.298778
 C         1.583598         1.031561         1.537901
 C         1.066762        -0.262975         0.810934
 C        -0.015252        -0.038267        -0.286375
 O         0.597694        -1.385212         1.540375
 H         3.567382         1.886550         3.621432
 H         4.943845         1.412964         2.523229
 H         3.899746         2.852554         2.204933
 H         2.994128        -1.106190        -0.395789
 H         2.722850         1.911649        -0.394661
 H         0.918729         1.839335         2.016853
 H        -0.133285         0.961923        -0.815509
 H         0.149552        -0.986172        -0.818151
 H        -1.114256        -0.140980         0.159713
 H         1.406547        -1.550129         2.024188
