19
Iteration:  3237charge 0 multiplicity 1
 C         3.949014         1.764510         2.662626
 C         3.086603         0.891591         1.694493
 O         3.443660        -0.491070         1.395853
 C         2.502471        -0.344113         0.243518
 C         2.558719         1.230088         0.313399
 C         1.565004         1.080452         1.529722
 C         1.093718        -0.316990         0.798964
 C         0.071548        -0.082231        -0.355946
 O         0.727684        -1.299417         1.672636
 H         3.978407         1.239077         3.610456
 H         4.920054         1.918825         2.234491
 H         3.500734         2.702591         2.964769
 H         2.850085        -0.966717        -0.587704
 H         2.882705         1.978844        -0.417171
 H         0.979387         1.845814         2.004854
 H         0.551629         0.677088        -1.114552
 H        -0.304619        -1.070411        -0.697294
 H        -0.793280         0.469548        -0.120356
 H         1.182027        -1.101209         2.471449
