19
Iteration:    13
 C         4.037425         1.727612         2.568646
 C         3.026821         0.855811         1.724312
 O         3.280420        -0.600861         1.509553
 C         2.508045        -0.446365         0.247617
 C         2.738611         1.108600         0.178028
 C         1.655943         1.176327         1.278836
 C         1.010903        -0.152057         0.817374
 C        -0.035189        -0.085845        -0.174109
 O         0.719247        -1.142923         1.791996
 H         4.276611         1.542299         3.573755
 H         4.917573         1.408738         1.894382
 H         3.993665         2.758008         2.385263
 H         2.818779        -1.132601        -0.471343
 H         2.992554         1.831937        -0.590585
 H         1.328676         2.024253         1.741468
 H        -0.901367         0.614764         0.028201
 H         0.571874         0.308554        -1.103363
 H        -0.360698        -1.039687        -0.415253
 H         1.458463        -0.896732         2.539193
