19
Iteration:  4376charge 0 multiplicity 1
 C         3.871210         1.558016         2.786912
 C         3.001558         0.940371         1.710185
 O         3.329868        -0.433845         1.420584
 C         2.560941        -0.232935         0.236246
 C         2.658555         1.334009         0.234124
 C         1.458135         1.222771         1.231905
 C         1.128342        -0.242371         0.795282
 C         0.053619        -0.283658        -0.330839
 O         0.885891        -1.266811         1.812285
 H         3.319219         1.338355         3.697467
 H         4.817644         1.024463         2.753696
 H         4.067495         2.660505         2.625221
 H         2.869365        -0.907028        -0.574148
 H         2.987824         2.206543        -0.383930
 H         0.881404         1.880872         1.836607
 H         0.358925         0.089719        -1.216574
 H         0.006119        -1.365930        -0.424590
 H        -0.963855         0.103716         0.067209
 H         1.826620        -1.632325         2.015541
