19
Iteration:  3219
 C         3.951463         1.754304         2.520527
 C         3.086515         0.906428         1.767689
 O         3.441813        -0.453370         1.446142
 C         2.566652        -0.370197         0.311489
 C         2.610086         1.188853         0.422326
 C         1.491148         1.080925         1.411702
 C         1.102735        -0.194408         0.837494
 C         0.085945         0.000204        -0.291508
 O         0.683606        -1.452135         1.581430
 H         4.160827         1.507953         3.634426
 H         4.935862         1.783812         1.995371
 H         3.549624         2.763230         2.448925
 H         2.645510        -1.101059        -0.480178
 H         2.749376         2.160291        -0.190539
 H         0.867482         1.849326         1.795174
 H         0.479968         0.766371        -0.972571
 H        -0.186631        -0.993987        -0.737449
 H        -0.829378         0.508635         0.090811
 H         1.299536        -1.427049         2.306930
