19
Iteration:  3295charge 0 multiplicity 1
 C         3.755072         1.467499         2.884748
 C         3.076018         0.932148         1.661852
 O         3.423363        -0.434741         1.334677
 C         2.587430        -0.301002         0.117086
 C         2.742495         1.247551         0.206261
 C         1.544998         1.183658         1.290783
 C         1.085222        -0.198466         0.790399
 C        -0.083246        -0.277104        -0.249009
 O         0.874643        -1.101047         1.842893
 H         3.547584         0.692315         3.676270
 H         4.834883         1.436903         2.990709
 H         3.351193         2.440433         3.115170
 H         2.883828        -0.974911        -0.683350
 H         2.689950         2.049088        -0.556858
 H         0.982856         2.052489         1.733189
 H        -0.054458         0.457634        -1.124906
 H         0.066386        -1.276418        -0.789622
 H        -0.972512        -0.229602         0.281499
 H         1.825933        -0.983315         2.175730
