19
Iteration:  4388charge 0 multiplicity 1
 C         3.821390         1.509191         2.787100
 C         3.004418         0.982221         1.674490
 O         3.372482        -0.489559         1.428570
 C         2.629702        -0.269157         0.157089
 C         2.609873         1.323476         0.319146
 C         1.524033         1.219281         1.344602
 C         1.076312        -0.139704         0.745543
 C         0.017231        -0.437368        -0.284039
 O         0.890273        -1.147789         1.749537
 H         3.505806         1.257362         3.857951
 H         4.844496         1.195977         2.727060
 H         3.788619         2.645537         2.754880
 H         3.021189        -0.858677        -0.684463
 H         2.993959         2.061202        -0.433025
 H         0.917063         2.065440         1.684742
 H         0.300507        -0.004333        -1.204285
 H        -0.208137        -1.462870        -0.405390
 H        -0.976448         0.048572        -0.072737
 H         1.826380        -1.264158         2.086348
