19
Iteration:   308
 C         4.030122         1.703753         2.526681
 C         3.101128         0.955680         1.682928
 O         3.375066        -0.501503         1.507220
 C         2.537213        -0.349432         0.260035
 C         2.617959         1.216762         0.287733
 C         1.583119         1.192832         1.466860
 C         1.053129        -0.226671         0.821419
 C        -0.017711        -0.050245        -0.249878
 O         0.699978        -1.412362         1.651738
 H         4.244555         1.157131         3.394071
 H         5.069252         1.730295         2.220447
 H         3.510947         2.564352         2.833850
 H         2.907784        -1.000143        -0.563761
 H         2.907492         2.081453        -0.257978
 H         1.132483         2.188230         1.830027
 H        -1.033104        -0.031258         0.279988
 H         0.207160         0.785130        -0.992517
 H        -0.145205        -0.941617        -0.851917
 H         1.546340        -1.495754         2.105018
