19
Iteration:  3094charge 0 multiplicity 1
 C         3.742293         1.406969         2.864797
 C         3.087499         0.896777         1.594276
 O         3.365320        -0.493331         1.348131
 C         2.527578        -0.238492         0.149437
 C         2.813426         1.384168         0.208856
 C         1.534413         1.216174         1.166822
 C         1.101861        -0.175609         0.843952
 C        -0.055771        -0.315046        -0.135683
 O         0.882908        -1.144946         1.809008
 H         3.723975         0.649183         3.625562
 H         4.810061         1.551904         2.576686
 H         3.289563         2.324579         3.364470
 H         2.797063        -0.906472        -0.744524
 H         2.962284         2.319681        -0.374105
 H         0.998841         2.016431         1.788776
 H         0.408338         0.260070        -1.129140
 H        -0.254639        -1.400423        -0.264462
 H        -0.951076         0.235700         0.077444
 H         1.645292        -1.196944         2.336557
