19
Iteration:  1447
 C         3.938791         1.609918         2.639161
 C         3.108729         0.902947         1.655335
 O         3.463159        -0.419681         1.340768
 C         2.520190        -0.378507         0.207407
 C         2.655831         1.166057         0.307685
 C         1.587368         1.179164         1.382415
 C         1.120880        -0.246825         0.914135
 C         0.019273        -0.077670        -0.306598
 O         0.597784        -1.235689         1.793495
 H         3.624793         1.563470         3.724359
 H         4.929104         1.070192         2.685211
 H         4.045906         2.724129         2.498635
 H         2.790409        -1.183001        -0.529528
 H         2.828866         1.916315        -0.534813
 H         1.123829         1.994994         1.825536
 H        -0.910076        -0.571886        -0.017768
 H        -0.344596         1.018393        -0.471836
 H         0.487989        -0.586342        -1.192214
 H         1.445921        -1.584605         2.356790
