19
Iteration:  2754
 C         4.066674         1.907837         2.622836
 C         3.164288         0.995627         1.692659
 O         3.493337        -0.433773         1.426496
 C         2.503056        -0.422218         0.289759
 C         2.659148         1.159840         0.380004
 C         1.502021         1.031766         1.442661
 C         1.095948        -0.360310         0.907217
 C         0.052481         0.087884        -0.260708
 O         0.511654        -1.507912         1.531668
 H         3.943811         1.721650         3.687305
 H         5.127572         1.814669         2.240490
 H         3.913461         2.953199         2.447627
 H         2.843415        -1.003014        -0.552021
 H         2.802240         2.009601        -0.381894
 H         0.732058         1.871803         1.823397
 H         0.451435         0.841438        -0.990151
 H        -0.296786        -0.718408        -0.879582
 H        -0.842981         0.430827         0.255675
 H         1.133208        -1.938864         2.213233
