19
Iteration:  3048charge 0 multiplicity 1
 C         3.804412         1.554014         2.787188
 C         3.089240         0.909513         1.730989
 O         3.435552        -0.462033         1.351051
 C         2.585984        -0.335151         0.150120
 C         2.708350         1.285915         0.344999
 C         1.563120         1.198811         1.187414
 C         1.046698        -0.228597         0.755795
 C        -0.097899        -0.179515        -0.220807
 O         0.851965        -1.211320         1.805146
 H         3.854169         0.821547         3.560433
 H         4.860055         1.793606         2.541632
 H         3.281699         2.368518         3.280930
 H         2.817536        -1.025675        -0.708749
 H         2.956540         1.983178        -0.559368
 H         1.116663         1.841365         1.859688
 H         0.137151         0.478818        -1.081265
 H        -0.361219        -1.207096        -0.430901
 H        -1.007341         0.350222         0.290426
 H         1.763213        -1.352104         2.004145
