19
Iteration:  3410charge 0 multiplicity 1
 C         4.035642         1.834744         2.555446
 C         3.162804         0.998355         1.712305
 O         3.477917        -0.441468         1.450485
 C         2.512221        -0.306437         0.326312
 C         2.520080         1.200297         0.429202
 C         1.438725         0.969757         1.555292
 C         1.035094        -0.316548         0.827913
 C         0.118934        -0.030841        -0.439419
 O         0.638804        -1.405061         1.635550
 H         4.303374         1.261108         3.497505
 H         5.131088         1.879997         2.256755
 H         3.583491         2.849064         2.611531
 H         2.790318        -0.940996        -0.512477
 H         2.704537         1.970488        -0.449893
 H         0.801306         1.689374         1.991634
 H         0.768218         0.470026        -1.191994
 H        -0.093315        -1.014213        -0.855035
 H        -0.775650         0.615310        -0.257081
 H         1.443426        -1.698819         2.022905
