19
Iteration:  4566
 C         3.843295         1.620986         2.696357
 C         3.042525         0.949980         1.639825
 O         3.448981        -0.401863         1.469357
 C         2.570660        -0.356737         0.254107
 C         2.513167         1.165232         0.192207
 C         1.556614         1.104157         1.368553
 C         1.146686        -0.214856         0.881170
 C         0.228271        -0.128585        -0.310586
 O         0.669515        -1.233386         1.736299
 H         5.017661         1.612018         2.698344
 H         3.542923         2.696526         2.944786
 H         3.569076         1.215930         3.686019
 H         2.715902        -1.069456        -0.561812
 H         2.599050         1.965477        -0.600193
 H         0.764563         1.714725         1.679409
 H         0.556036         0.527359        -1.152056
 H         0.083791        -1.158915        -0.741260
 H        -0.654611         0.330006        -0.007421
 H         1.508137        -1.613766         2.193648
