19
Iteration:  1258
 C         3.795445         1.532198         2.782115
 C         3.082152         0.863758         1.668990
 O         3.333118        -0.544291         1.317564
 C         2.500014        -0.326773         0.154515
 C         2.750895         1.254911         0.255856
 C         1.652098         1.194411         1.309025
 C         1.133273        -0.125137         0.730317
 C        -0.083327        -0.231684        -0.197274
 O         0.848327        -1.070854         1.870273
 H         3.361730         1.256936         3.744423
 H         4.853314         1.161534         2.905664
 H         3.855846         2.607850         2.595490
 H         2.778951        -0.949396        -0.713110
 H         3.102843         1.914146        -0.582193
 H         1.018858         2.073342         1.833476
 H        -0.977679        -0.470100         0.443624
 H        -0.223070         0.656305        -0.831838
 H         0.011382        -1.173229        -0.795066
 H         1.763224        -1.432907         2.037407
