19
Iteration:   191
 C         3.878781         1.514011         2.724875
 C         3.099482         0.969120         1.628573
 O         3.406464        -0.452396         1.396706
 C         2.563078        -0.337752         0.163474
 C         2.738921         1.163907         0.200222
 C         1.654478         1.199940         1.250565
 C         1.061924        -0.214351         0.826607
 C        -0.136765        -0.178133        -0.191792
 O         0.755332        -1.146899         1.869422
 H         3.558635         1.077333         3.661467
 H         4.883604         1.104507         2.687553
 H         3.689684         2.588568         2.875932
 H         3.027230        -1.058644        -0.590227
 H         3.040380         1.902877        -0.493413
 H         1.054784         2.149377         1.481165
 H         0.107907        -0.852649        -0.987567
 H        -1.115163        -0.377813         0.279269
 H        -0.298123         0.781628        -0.597096
 H         1.558617        -1.386760         2.281837
