19
Iteration:  1569
 C         3.902954         1.660968         2.660069
 C         3.166845         0.877065         1.680671
 O         3.455254        -0.521112         1.280549
 C         2.538634        -0.320255         0.189418
 C         2.550344         1.231457         0.378979
 C         1.575904         1.078317         1.422483
 C         1.103636        -0.276019         0.893438
 C         0.076091        -0.037880        -0.292570
 O         0.663312        -1.243262         1.766447
 H         3.966157         1.233330         3.711198
 H         4.902914         1.954815         2.317635
 H         3.237519         2.642206         2.810804
 H         2.572380        -0.990639        -0.612651
 H         2.917974         1.966034        -0.255456
 H         0.871747         1.955843         1.705066
 H        -0.311708         0.938111        -0.251447
 H         0.685929         0.028156        -1.339767
 H        -0.700291        -0.883779        -0.380390
 H         1.401624        -1.450089         2.440402
