19
Iteration:  1625charge 0 multiplicity 1
 C         4.137523         1.693270         2.565841
 C         3.047865         0.960410         1.799236
 O         3.395131        -0.453641         1.473907
 C         2.563062        -0.272183         0.290786
 C         2.572692         1.224244         0.362080
 C         1.471515         1.110662         1.388552
 C         1.064162        -0.300553         0.831816
 C         0.045608        -0.009742        -0.244261
 O         0.700598        -1.480670         1.530403
 H         4.127888         1.575518         3.691695
 H         5.162526         1.492027         2.119123
 H         4.118092         2.793802         2.291149
 H         2.763786        -1.022273        -0.496103
 H         2.622377         2.143102        -0.300923
 H         0.888831         1.794834         1.871497
 H         0.085953         1.133236        -0.342107
 H        -0.059287        -0.635228        -1.190165
 H        -0.978712        -0.032723         0.213332
 H         1.318056        -1.444136         2.231890
