19
Iteration:  1192
 C         4.003232         1.800545         2.509814
 C         3.162832         0.915409         1.685270
 O         3.363599        -0.497218         1.485234
 C         2.539630        -0.371250         0.282140
 C         2.573259         1.163654         0.366777
 C         1.669067         1.074754         1.518181
 C         1.106896        -0.283680         0.809449
 C         0.066695        -0.010865        -0.251448
 O         0.572226        -1.304619         1.600047
 H         4.219193         1.264591         3.441895
 H         4.956737         1.998358         1.992463
 H         3.397978         2.746333         2.673513
 H         2.909816        -1.034273        -0.450813
 H         2.779755         1.842624        -0.414687
 H         0.810878         1.751519         1.947136
 H        -0.873506         0.614032         0.107348
 H         0.494534         0.629076        -1.034875
 H        -0.163483        -1.057521        -0.669196
 H         1.444042        -1.658767         2.091527
