19
Iteration:  4152charge 0 multiplicity 1
 C         3.655468         1.565851         2.810115
 C         3.056846         0.995678         1.631959
 O         3.432687        -0.418546         1.379382
 C         2.636996        -0.341947         0.190773
 C         2.675777         1.217841         0.207729
 C         1.559930         1.141022         1.253785
 C         1.190604        -0.206149         0.815102
 C        -0.045263        -0.129578        -0.212459
 O         0.889484        -1.250997         1.766218
 H         3.723075         0.691791         3.575591
 H         4.611828         2.035053         2.811695
 H         2.838560         2.078416         3.315982
 H         2.769541        -1.129195        -0.522821
 H         2.869805         1.918149        -0.559628
 H         0.748343         1.628378         1.652502
 H        -0.104625         0.931589        -0.772020
 H         0.046941        -1.125519        -0.661846
 H        -0.836537        -0.134952         0.482174
 H         1.838565        -1.351351         2.064631
