19
Iteration:   516charge 0 multiplicity 1
 C         3.994039         1.776947         2.490360
 C         3.136811         0.898169         1.687800
 O         3.452020        -0.405611         1.437858
 C         2.520953        -0.356588         0.316995
 C         2.603622         1.164884         0.334033
 C         1.609917         0.985093         1.460452
 C         1.084536        -0.277952         0.881952
 C         0.099227         0.021387        -0.293251
 O         0.503929        -1.328334         1.677744
 H         4.205340         1.410852         3.580612
 H         4.988638         1.574048         2.122200
 H         3.794414         2.834505         2.398063
 H         2.826226        -1.071342        -0.468375
 H         2.718205         1.893788        -0.462234
 H         1.101085         1.715545         1.965714
 H        -0.917559        -0.290581        -0.087469
 H         0.216061         1.084770        -0.492546
 H         0.355681        -0.538856        -1.191205
 H         1.232383        -1.681343         2.336846
