19
Iteration:  3715
 C         3.929568         1.648446         2.871734
 C         3.059587         0.919336         1.668664
 O         3.320280        -0.479090         1.380050
 C         2.544523        -0.268485         0.140496
 C         2.669414         1.281898         0.287259
 C         1.571261         1.120564         1.262653
 C         1.084886        -0.245214         0.798298
 C        -0.022483        -0.266768        -0.293713
 O         0.827987        -1.204851         1.818420
 H         4.209112         0.766673         3.484412
 H         4.855854         2.059853         2.472575
 H         3.315502         2.380418         3.291353
 H         2.883335        -0.802493        -0.758119
 H         3.019613         2.121604        -0.397571
 H         1.010081         1.910571         1.723631
 H         0.273121         0.208185        -1.381935
 H        -0.268352        -1.333111        -0.650706
 H        -0.997967         0.268848        -0.046528
 H         1.697815        -1.178807         2.352499
