19
Iteration:  3675charge 0 multiplicity 1
 C         3.814644         1.743548         2.602733
 C         3.036235         0.938107         1.714537
 O         3.379688        -0.479542         1.484923
 C         2.609160        -0.316091         0.202923
 C         2.632457         1.169890         0.230909
 C         1.593733         1.095974         1.370578
 C         1.115497        -0.272492         0.829253
 C         0.100296         0.007904        -0.150197
 O         0.712625        -1.407156         1.649228
 H         4.012976         1.341473         3.678288
 H         4.806686         1.988697         2.196159
 H         3.413253         2.807248         2.774440
 H         2.825693        -1.012019        -0.630048
 H         3.046032         2.057973        -0.335145
 H         0.971813         1.836463         1.792645
 H         0.303304         0.873269        -0.843647
 H         0.116547        -0.786632        -0.965802
 H        -0.807395        -0.092458         0.311007
 H         1.419654        -1.503713         2.354021
