19
Iteration:  1945charge 0 multiplicity 1
 C         3.676157         1.324757         2.924664
 C         3.061387         0.961212         1.608766
 O         3.463503        -0.439802         1.312926
 C         2.575708        -0.310596         0.085729
 C         2.673603         1.289579         0.117053
 C         1.631305         1.180202         1.222367
 C         1.077574        -0.194506         0.769128
 C        -0.080226        -0.191559        -0.076036
 O         0.920185        -1.074799         1.852523
 H         3.115809         0.606594         3.553189
 H         4.819612         1.277593         3.039790
 H         3.355684         2.347508         3.376264
 H         2.766563        -0.983607        -0.699887
 H         2.968946         2.057493        -0.581092
 H         1.065629         2.025703         1.725945
 H         0.267940         0.222311        -1.144353
 H        -0.320582        -1.276038        -0.273407
 H        -0.996931         0.235177         0.521112
 H         1.854932        -1.241695         2.093833
