19
Iteration:  3150
 C         3.841461         1.681401         2.650377
 C         3.113842         0.874407         1.652004
 O         3.391037        -0.455206         1.362704
 C         2.546751        -0.344866         0.209367
 C         2.678294         1.253503         0.313404
 C         1.528309         1.152265         1.407282
 C         1.123252        -0.285464         0.832520
 C         0.049808        -0.070441        -0.233695
 O         0.728030        -1.335447         1.725104
 H         3.525844         1.373281         3.674683
 H         4.908232         1.408150         2.669474
 H         3.844015         2.783569         2.533059
 H         2.947964        -0.896540        -0.648645
 H         3.054802         2.025249        -0.254763
 H         0.927962         2.003753         1.825127
 H         0.116737         1.033908        -0.755519
 H         0.070759        -0.898133        -1.019202
 H        -0.847785        -0.143323         0.259371
 H         1.377305        -1.440659         2.420238
