19
Iteration:   112
 C         3.904834         1.702133         2.604811
 C         3.144075         0.887497         1.681844
 O         3.430094        -0.542672         1.345204
 C         2.543388        -0.420979         0.182905
 C         2.689370         1.106348         0.225938
 C         1.598128         1.059671         1.454095
 C         1.095908        -0.231225         0.859179
 C         0.055056        -0.085669        -0.213889
 O         0.565968        -1.084150         1.820120
 H         3.825647         1.380606         3.592659
 H         4.997852         1.841190         2.298797
 H         3.625189         2.702433         2.499659
 H         2.744323        -1.137223        -0.594977
 H         2.862048         1.926644        -0.512734
 H         1.183799         2.049373         1.662689
 H         0.382991         0.410408        -1.143086
 H        -0.277093        -1.099139        -0.457510
 H        -0.651460         0.537811         0.107668
 H         1.409067        -1.067446         2.453677
