19
Iteration:  4556charge 0 multiplicity 1
 C         3.860279         1.653186         2.665137
 C         3.032737         0.981777         1.649751
 O         3.428815        -0.419439         1.454061
 C         2.547750        -0.412346         0.314131
 C         2.571432         1.277482         0.270176
 C         1.495554         1.159052         1.375406
 C         1.160644        -0.282371         0.863943
 C         0.250720        -0.142259        -0.312747
 O         0.656880        -1.301196         1.694353
 H         4.927009         1.239047         2.417224
 H         3.847719         2.803935         2.495526
 H         3.573260         1.297564         3.688837
 H         2.866676        -1.076888        -0.492770
 H         2.596199         2.054721        -0.553994
 H         0.929335         2.014680         1.652282
 H         0.687530         0.534128        -1.027922
 H        -0.131780        -1.091060        -0.772490
 H        -0.657873         0.265099         0.073506
 H         1.371831        -1.590193         2.326691
