19
Iteration:  1575
 C         3.933895         1.691060         2.649974
 C         3.136362         0.844071         1.695155
 O         3.451573        -0.504934         1.310124
 C         2.479841        -0.324039         0.202498
 C         2.571407         1.258852         0.399509
 C         1.587513         1.065334         1.444572
 C         1.139894        -0.214594         0.861908
 C         0.098716        -0.045694        -0.302526
 O         0.619467        -1.291777         1.752278
 H         3.980993         1.330703         3.647867
 H         4.879868         2.057103         2.207827
 H         3.514995         2.642196         2.681761
 H         2.648222        -0.973818        -0.735555
 H         2.850866         1.975744        -0.437909
 H         1.024522         1.855348         1.915283
 H        -0.483746         0.966480        -0.404750
 H         0.667847        -0.238653        -1.143459
 H        -0.615789        -0.823531        -0.339784
 H         1.435026        -1.615170         2.287896
