19
Iteration:   334charge 0 multiplicity 1
 C         3.913412         1.682571         2.675265
 C         3.072478         0.893154         1.679387
 O         3.367820        -0.529857         1.297443
 C         2.526964        -0.336862         0.144701
 C         2.702417         1.236444         0.297671
 C         1.543156         1.101191         1.472895
 C         1.127262        -0.235021         0.806155
 C         0.011057        -0.128415        -0.220774
 O         0.751269        -1.189632         1.776317
 H         3.941360         1.296036         3.776798
 H         4.978516         1.602249         2.299484
 H         3.428107         2.702802         2.784117
 H         2.711516        -1.086579        -0.661262
 H         2.845274         2.149493        -0.364262
 H         0.992363         1.790211         2.032114
 H        -0.716601         0.543902         0.126555
 H         0.398080         0.194336        -1.155140
 H        -0.472237        -1.097022        -0.468933
 H         1.640013        -1.406885         2.270847
