19
Iteration:  2971
 C         4.085508         1.785471         2.564357
 C         3.063649         1.003119         1.739256
 O         3.409590        -0.397132         1.435071
 C         2.584082        -0.329535         0.287122
 C         2.593502         1.223596         0.355198
 C         1.528953         1.010477         1.490978
 C         1.115606        -0.286679         0.863596
 C         0.106532        -0.039259        -0.245674
 O         0.537112        -1.441903         1.516725
 H         3.972788         1.859468         3.626491
 H         5.035304         1.316552         2.271813
 H         3.955825         2.743371         2.126115
 H         2.975623        -0.932193        -0.518175
 H         2.755516         1.978054        -0.363586
 H         0.971749         1.685482         2.099679
 H         0.132276         0.898812        -0.671634
 H         0.115923        -0.746737        -1.033224
 H        -0.760351        -0.152568         0.467383
 H         1.170265        -1.900694         2.193797
