19
Iteration:  1209
 C         4.026588         1.703716         2.594776
 C         3.039624         0.956010         1.683872
 O         3.395390        -0.498175         1.524679
 C         2.545214        -0.369101         0.262472
 C         2.675011         1.179871         0.233124
 C         1.520179         1.118908         1.383368
 C         1.077076        -0.230977         0.876881
 C         0.017920         0.000776        -0.239685
 O         0.692739        -1.364598         1.620474
 H         4.178914         1.147447         3.537731
 H         5.027174         1.738279         2.178734
 H         3.744662         2.748685         2.722932
 H         2.758841        -1.064027        -0.586936
 H         2.834091         2.009141        -0.461233
 H         1.128113         1.970120         1.748001
 H        -0.901861         0.161704         0.254949
 H         0.372879         0.809112        -0.880245
 H        -0.237244        -0.881783        -0.767168
 H         1.274304        -1.417147         2.481136
