19
Iteration:  4205charge 0 multiplicity 1
 C         3.713114         1.560157         2.852449
 C         3.097512         0.870445         1.686426
 O         3.403392        -0.480013         1.319070
 C         2.574134        -0.212531         0.112053
 C         2.661098         1.362287         0.321129
 C         1.535940         1.204305         1.309408
 C         1.091437        -0.182804         0.755218
 C         0.018371        -0.444429        -0.201394
 O         0.898148        -1.142062         1.739337
 H         3.132981         1.299762         3.761289
 H         4.640053         1.056570         2.902963
 H         3.836144         2.616033         2.601611
 H         2.871052        -0.858236        -0.705763
 H         3.074502         2.193715        -0.202809
 H         0.884813         1.890268         1.752607
 H         0.262993         0.165612        -1.199832
 H        -0.322249        -1.470483        -0.369602
 H        -0.850720         0.011122         0.297597
 H         1.765200        -1.099193         2.284425
