19
Iteration:   904charge 0 multiplicity 1
 C         3.890248         1.676042         2.733470
 C         3.119786         1.007153         1.660874
 O         3.416236        -0.496828         1.356055
 C         2.509678        -0.427210         0.218935
 C         2.623348         1.147173         0.203464
 C         1.634925         1.094346         1.394626
 C         1.130647        -0.287952         0.827555
 C         0.085070         0.013232        -0.181373
 O         0.663421        -1.249376         1.735145
 H         3.546794         1.303062         3.709986
 H         4.924870         1.591818         2.459829
 H         3.814666         2.710074         2.698775
 H         2.716580        -1.204714        -0.654448
 H         2.537690         1.774711        -0.656329
 H         0.926125         1.868442         1.861402
 H        -0.885173         0.266926         0.240286
 H         0.506107         0.700743        -0.954213
 H        -0.125373        -0.862364        -0.784128
 H         1.254709        -1.151930         2.415510
