19
Iteration:     1charge 0 multiplicity 1
 C         3.984446         1.631739         2.571486
 C         3.123864         0.886436         1.610965
 O         3.308028        -0.541589         1.475893
 C         2.500677        -0.443100         0.262994
 C         2.738729         1.098518         0.186013
 C         1.657453         1.182151         1.269293
 C         1.075092        -0.180996         0.847350
 C        -0.029894        -0.102499        -0.190406
 O         0.675866        -1.065837         1.857713
 H         3.794008         1.302484         3.598640
 H         5.044454         1.474667         2.349873
 H         3.772932         2.703440         2.514109
 H         2.717418        -1.216342        -0.471926
 H         3.059242         1.780660        -0.587813
 H         1.135665         2.058129         1.635478
 H        -0.950225         0.272524         0.266993
 H         0.243017         0.561890        -1.014296
 H        -0.236519        -1.099929        -0.590049
 H         1.481845        -1.249852         2.360982
