19
Iteration:  2885
 C         3.732359         1.457747         2.867580
 C         3.093497         0.954981         1.643272
 O         3.467644        -0.414448         1.301890
 C         2.518235        -0.380124         0.108747
 C         2.752714         1.298722         0.239563
 C         1.636493         1.143490         1.276687
 C         1.089147        -0.240425         0.761959
 C        -0.140714        -0.228355        -0.154599
 O         0.864484        -1.127785         1.784610
 H         3.702119         0.725774         3.689588
 H         4.799279         1.884039         2.810229
 H         3.163749         2.338978         3.190906
 H         2.926530        -1.086649        -0.581148
 H         3.132301         2.006532        -0.422394
 H         1.108442         1.875305         1.948845
 H         0.053519         0.452826        -1.046698
 H        -0.376978        -1.236535        -0.465666
 H        -1.070367         0.263207         0.227563
 H         1.488307        -0.881637         2.422556
