19
Iteration:  2011
 C         3.920764         1.610377         2.678317
 C         3.052800         0.859697         1.691324
 O         3.383592        -0.506093         1.420479
 C         2.478320        -0.297754         0.234014
 C         2.610451         1.260056         0.260059
 C         1.587262         1.128358         1.432338
 C         1.116656        -0.165430         0.776170
 C        -0.011255        -0.090958        -0.230387
 O         0.854377        -1.272217         1.672724
 H         3.459227         1.435998         3.663643
 H         5.016791         1.475575         2.564494
 H         3.579993         2.730021         2.598884
 H         2.832313        -0.951201        -0.482616
 H         2.866795         2.027793        -0.410878
 H         0.996240         1.734600         2.034433
 H         0.099588         0.798410        -0.990881
 H         0.002595        -0.973658        -0.888037
 H        -0.990158        -0.208809         0.411754
 H         1.685085        -1.534238         1.991364
