19
Iteration:  3995charge 0 multiplicity 1
 C         3.634420         1.636377         2.825405
 C         3.043949         0.911267         1.714527
 O         3.414825        -0.496660         1.339636
 C         2.613693        -0.283682         0.126730
 C         2.742623         1.216234         0.261992
 C         1.576733         1.126185         1.318172
 C         1.120977        -0.213995         0.748911
 C        -0.087972        -0.149088        -0.183008
 O         0.979203        -1.262188         1.746511
 H         3.091911         1.382602         3.675750
 H         4.655726         1.464628         3.144696
 H         3.597722         2.729942         2.749848
 H         2.893190        -0.858780        -0.787078
 H         2.740842         2.007038        -0.432088
 H         0.908985         1.952888         1.586924
 H        -0.013700         0.678602        -0.820650
 H        -0.270481        -1.051266        -0.786704
 H        -1.105429        -0.081712         0.435906
 H         1.890151        -1.270931         2.184387
