19
Iteration:  1865charge 0 multiplicity 1
 C         4.071342         1.815504         2.591947
 C         3.115776         0.891867         1.742007
 O         3.427540        -0.492582         1.441524
 C         2.565363        -0.281766         0.265621
 C         2.642193         1.242113         0.353306
 C         1.542975         1.062577         1.441173
 C         1.067148        -0.283134         0.835364
 C         0.013652        -0.009953        -0.254159
 O         0.565711        -1.432508         1.596846
 H         4.328808         1.534447         3.652970
 H         5.014897         1.555958         2.029433
 H         3.736470         2.804962         2.490236
 H         2.856593        -0.939241        -0.634581
 H         2.938076         2.113946        -0.205150
 H         0.792524         1.706724         1.797570
 H         0.336344         1.006058        -0.690152
 H         0.160819        -0.869430        -1.073573
 H        -0.986292         0.095287         0.097876
 H         1.115440        -1.727519         2.308010
