19
Iteration:  3276
 C         3.757188         1.498602         2.857949
 C         3.068495         0.955270         1.663391
 O         3.544049        -0.434869         1.267600
 C         2.562706        -0.297889         0.224810
 C         2.616954         1.277703         0.246186
 C         1.593290         1.173052         1.284484
 C         1.124723        -0.190613         0.782492
 C         0.015023        -0.301657        -0.225435
 O         0.713807        -1.118597         1.806389
 H         3.800489         0.724958         3.656299
 H         4.834579         1.627142         2.503119
 H         3.399951         2.523226         3.211469
 H         2.690540        -0.921172        -0.679717
 H         3.189087         1.922760        -0.309806
 H         0.861059         1.891581         1.787791
 H         0.282106         0.232495        -1.039595
 H        -0.143238        -1.246344        -0.687811
 H        -0.973371         0.088350         0.316792
 H         1.489632        -1.614924         2.133441
