19
Iteration:  1313charge 0 multiplicity 1
 C         3.815980         1.461822         2.845121
 C         3.111470         0.930813         1.597647
 O         3.410915        -0.421221         1.313347
 C         2.564196        -0.383041         0.124187
 C         2.663744         1.216205         0.198118
 C         1.640813         1.144718         1.249176
 C         1.093166        -0.178960         0.823196
 C        -0.062468        -0.206476        -0.150044
 O         0.793293        -1.050845         1.843961
 H         3.348503         0.865380         3.632025
 H         4.896457         1.127339         2.699089
 H         3.604622         2.478044         3.088411
 H         2.781775        -1.076227        -0.753394
 H         2.866434         2.138617        -0.368896
 H         0.985257         1.836923         1.902637
 H        -0.743281         0.570543         0.105797
 H         0.286066         0.152857        -1.094553
 H        -0.334181        -1.196652        -0.251462
 H         1.535914        -1.419035         2.355188
