19
Iteration:   940
 C         4.043990         1.776527         2.508246
 C         3.046901         0.908090         1.747148
 O         3.393427        -0.512854         1.504213
 C         2.521737        -0.352252         0.286547
 C         2.736383         1.195157         0.342307
 C         1.534217         1.132497         1.480381
 C         1.102330        -0.279465         0.802665
 C         0.006800        -0.035276        -0.235917
 O         0.627239        -1.342518         1.582961
 H         4.211305         1.507760         3.563503
 H         4.953578         1.522286         2.027763
 H         3.781858         2.874535         2.459017
 H         2.886253        -0.928166        -0.558264
 H         2.838810         1.919508        -0.481274
 H         0.870330         1.885581         2.004734
 H        -0.756671         0.823838        -0.062808
 H         0.450293         0.210339        -1.215252
 H        -0.388021        -1.004244        -0.344828
 H         1.321656        -1.541451         2.128263
