19
Iteration:  3514charge 0 multiplicity 1
 C         3.607520         1.488010         2.811997
 C         3.037751         0.835060         1.656358
 O         3.450590        -0.488484         1.324791
 C         2.601891        -0.332221         0.236057
 C         2.726230         1.298301         0.207163
 C         1.565760         1.194516         1.249580
 C         1.092864        -0.139346         0.821373
 C        -0.073997        -0.202634        -0.157583
 O         0.982308        -1.160147         1.746537
 H         3.164885         1.093548         3.700945
 H         4.641206         1.431808         2.732077
 H         3.313226         2.545469         2.842235
 H         2.869272        -0.967415        -0.669296
 H         3.046937         2.074982        -0.605111
 H         1.154838         2.019143         1.773842
 H        -0.066037         0.611694        -0.863716
 H        -0.113272        -1.135860        -0.738257
 H        -1.021068        -0.234109         0.527517
 H         1.811524        -1.024940         2.340421
