19
Iteration:  2436charge 0 multiplicity 1
 C         3.710829         1.564110         2.834388
 C         3.046201         0.917590         1.659118
 O         3.370099        -0.422140         1.385307
 C         2.547216        -0.300823         0.134670
 C         2.704948         1.226196         0.285427
 C         1.654688         1.112500         1.307013
 C         1.113199        -0.234672         0.735275
 C        -0.108022        -0.154647        -0.149644
 O         0.948153        -1.221080         1.702209
 H         3.279228         1.235424         3.791058
 H         4.666273         1.105858         2.803455
 H         3.790848         2.640483         2.809715
 H         2.976894        -1.053945        -0.612572
 H         2.919668         1.887055        -0.547091
 H         1.130593         2.098620         1.552823
 H         0.093541         0.495917        -0.941970
 H        -0.375478        -1.107508        -0.631145
 H        -0.934293         0.427413         0.419500
 H         1.750885        -1.264673         2.362735
