19
Iteration:  4146
 C         3.653598         1.598311         2.829336
 C         3.047230         0.985384         1.639722
 O         3.411958        -0.437071         1.368638
 C         2.611837        -0.312836         0.200237
 C         2.730086         1.233399         0.172013
 C         1.585026         1.122163         1.290490
 C         1.165017        -0.206139         0.790974
 C        -0.011129        -0.132194        -0.213542
 O         0.856601        -1.316455         1.776244
 H         3.933185         0.817872         3.516914
 H         4.617289         2.220643         2.651330
 H         3.032344         2.277099         3.469757
 H         2.905488        -1.106404        -0.538766
 H         2.840105         2.009375        -0.618311
 H         0.696843         1.775356         1.664289
 H        -0.078948         0.756270        -0.716413
 H        -0.072531        -1.002337        -0.915277
 H        -0.850773        -0.068049         0.567935
 H         1.722142        -1.344990         2.170545
