19
Iteration:    60
 C         4.137448         1.760002         2.475652
 C         3.067268         0.965010         1.724876
 O         3.406420        -0.504766         1.503875
 C         2.506983        -0.442133         0.326371
 C         2.630286         1.059027         0.209467
 C         1.676666         1.113022         1.389790
 C         1.128889        -0.205631         0.939613
 C         0.024210        -0.016309        -0.285263
 O         0.480984        -1.229177         1.724011
 H         4.073611         1.470488         3.536700
 H         5.171655         1.546015         2.030233
 H         4.040373         2.865076         2.415999
 H         2.654047        -1.174238        -0.522893
 H         2.582252         1.744617        -0.649812
 H         1.080399         1.983529         1.867740
 H        -0.302384         1.039303        -0.539418
 H         0.563678        -0.474498        -1.235118
 H        -0.959540        -0.603982        -0.041086
 H         1.242965        -1.715747         2.222741
