19
Iteration:   288charge 0 multiplicity 1
 C         4.104741         1.710284         2.540122
 C         3.050482         0.992877         1.732765
 O         3.323289        -0.389783         1.515109
 C         2.511726        -0.346129         0.320724
 C         2.676506         1.212393         0.261379
 C         1.590527         1.099516         1.370174
 C         1.099576        -0.304937         0.843588
 C        -0.003258        -0.023154        -0.168266
 O         0.649999        -1.424486         1.580987
 H         4.388253         1.165307         3.418323
 H         5.068455         1.618423         1.845404
 H         3.760069         2.702978         2.898541
 H         2.801823        -1.060032        -0.527130
 H         2.952857         1.851123        -0.575305
 H         0.862005         1.785582         1.798387
 H        -0.978092        -0.411861         0.199261
 H         0.036209         1.058927        -0.465328
 H         0.165793        -0.469424        -1.129422
 H         1.411944        -1.570715         2.284613
