19
Iteration:   185
 C         3.900766         1.494473         2.748251
 C         3.084555         0.995105         1.653214
 O         3.368122        -0.476838         1.398439
 C         2.572059        -0.340623         0.212179
 C         2.756688         1.187111         0.155981
 C         1.602098         1.231980         1.212445
 C         1.088599        -0.243224         0.821049
 C        -0.129294        -0.175632        -0.164583
 O         0.759411        -1.158285         1.858657
 H         3.521149         0.974267         3.697503
 H         4.990268         1.237722         2.686796
 H         3.839212         2.590444         2.864258
 H         2.868027        -0.988617        -0.570634
 H         3.039790         1.949253        -0.614141
 H         1.201127         2.165761         1.380568
 H         0.010806        -0.812801        -1.087434
 H        -0.985460        -0.607299         0.359635
 H        -0.312630         0.906197        -0.608695
 H         1.693598        -1.304429         2.205315
