19
Iteration:  3920charge 0 multiplicity 1
 C         3.797466         1.596445         2.706025
 C         3.073671         0.999903         1.656373
 O         3.462300        -0.421414         1.328120
 C         2.572897        -0.290717         0.207338
 C         2.629831         1.255653         0.363162
 C         1.523813         1.063320         1.477659
 C         1.133252        -0.225286         0.785647
 C         0.067444        -0.271213        -0.323296
 O         0.734656        -1.177841         1.722542
 H         4.192478         0.987595         3.508336
 H         4.769023         1.954909         2.276659
 H         3.331216         2.409268         3.270680
 H         2.877241        -0.942355        -0.635589
 H         2.888531         2.042869        -0.303383
 H         0.943497         1.805812         1.951125
 H         0.172060         0.285180        -1.178757
 H        -0.006482        -1.333887        -0.531228
 H        -0.931702        -0.045854         0.079455
 H         1.446765        -1.371142         2.359865
