19
Iteration:  1043
 C         3.776204         1.540937         2.826556
 C         3.127881         0.872105         1.668377
 O         3.441903        -0.500368         1.273606
 C         2.639841        -0.401216         0.138384
 C         2.793171         1.198379         0.228398
 C         1.580575         1.211508         1.263303
 C         1.037888        -0.143653         0.825555
 C        -0.104077        -0.202620        -0.182468
 O         0.743562        -1.072988         1.863009
 H         3.343091         1.068676         3.756141
 H         4.964399         1.558453         2.800087
 H         3.479940         2.587690         2.776174
 H         2.747866        -1.163466        -0.676361
 H         3.138480         1.948801        -0.422843
 H         0.977311         2.104888         1.684508
 H        -0.938271        -0.474915         0.426229
 H        -0.219706         0.719093        -0.832039
 H         0.034980        -1.100978        -0.964118
 H         1.704074        -1.239404         2.133861
