19
Iteration:   456
 C         3.912185         1.701063         2.627883
 C         3.148027         0.908838         1.616505
 O         3.377239        -0.560100         1.411953
 C         2.554803        -0.325748         0.229277
 C         2.711628         1.236193         0.308549
 C         1.615559         1.131423         1.426215
 C         1.086110        -0.196585         0.818054
 C        -0.052524        -0.141102        -0.258007
 O         0.672748        -1.278067         1.756964
 H         3.866801         1.300099         3.572230
 H         4.915700         1.718025         2.123103
 H         3.616296         2.772537         2.728553
 H         2.833058        -0.995382        -0.558251
 H         3.108619         1.972020        -0.357105
 H         1.080065         2.087455         1.900055
 H        -1.046494        -0.253876         0.192415
 H        -0.099245         0.876069        -0.615217
 H         0.204874        -0.723132        -1.150632
 H         1.421731        -1.385215         2.329325
