19
Iteration:  4725charge 0 multiplicity 1
 C         3.938966         1.919870         2.550353
 C         3.083936         0.863459         1.815698
 O         3.499811        -0.484641         1.449373
 C         2.606606        -0.451740         0.329637
 C         2.765397         1.130257         0.345808
 C         1.536364         1.057985         1.439035
 C         1.082587        -0.233920         0.803279
 C         0.137482        -0.096707        -0.360748
 O         0.415758        -1.266250         1.642253
 H         3.163987         2.490994         3.178751
 H         4.689189         1.467764         3.215854
 H         4.285584         2.709890         1.773055
 H         2.684202        -1.335885        -0.332201
 H         3.027835         2.073213        -0.266487
 H         1.057658         1.889058         1.865611
 H         0.722077         0.530883        -1.137802
 H         0.062034        -1.060311        -0.678904
 H        -0.834722         0.321059        -0.250017
 H         1.085361        -1.615343         2.181410
