19
Iteration:  4632
 C         3.724841         1.597353         2.833705
 C         2.993754         0.943622         1.721997
 O         3.268518        -0.532586         1.491095
 C         2.630908        -0.314511         0.177389
 C         2.843625         1.227675         0.229280
 C         1.646888         1.191869         1.230860
 C         1.156681        -0.198956         0.617506
 C        -0.115141        -0.328081        -0.230608
 O         0.903068        -1.054743         1.758219
 H         4.347553         2.506003         2.578071
 H         2.982975         1.867844         3.671723
 H         4.490605         0.923489         3.228127
 H         2.843376        -1.178510        -0.451408
 H         3.097138         2.158710        -0.358175
 H         1.061262         1.991905         1.671762
 H        -0.216987         0.348389        -1.106633
 H        -0.309064        -1.420491        -0.573243
 H        -0.988693        -0.099150         0.364179
 H         1.785946        -1.386240         2.108244
