19
Iteration:   273
 C         4.137303         1.720697         2.567891
 C         3.064700         0.971893         1.699650
 O         3.384008        -0.464352         1.545623
 C         2.582234        -0.404359         0.242593
 C         2.521755         1.122970         0.276404
 C         1.527583         1.092845         1.433689
 C         1.108371        -0.254336         0.806517
 C         0.021380         0.022134        -0.212742
 O         0.677808        -1.328897         1.594063
 H         4.113487         1.216199         3.532329
 H         5.021060         1.917760         2.016039
 H         3.921580         2.752282         2.703179
 H         2.945518        -1.147858        -0.421044
 H         2.577583         1.955471        -0.403694
 H         0.877224         2.032288         1.667308
 H        -0.855148        -0.573670         0.218759
 H        -0.459207         1.017691        -0.178794
 H         0.351338        -0.423535        -1.183363
 H         1.368713        -1.587717         2.135254
