19
Iteration:  3611charge 0 multiplicity 1
 C         3.937680         1.756728         2.600348
 C         3.094688         0.948765         1.755096
 O         3.386757        -0.443185         1.380300
 C         2.534553        -0.303083         0.228935
 C         2.562007         1.291519         0.333727
 C         1.535328         1.040398         1.444888
 C         1.129079        -0.331389         0.840499
 C         0.158329        -0.109572        -0.269823
 O         0.642908        -1.364733         1.672072
 H         3.431238         2.119026         3.558557
 H         4.846674         1.174269         2.698975
 H         4.290902         2.782481         2.178219
 H         2.952794        -1.057023        -0.524910
 H         2.824235         2.294789        -0.220041
 H         0.958862         1.805864         1.877429
 H         0.504173         0.757345        -0.872423
 H         0.115144        -1.026181        -0.875663
 H        -0.844181         0.045093         0.200853
 H         1.431619        -1.760359         2.024973
