19
Iteration:  2360
 C         3.868928         1.499126         2.768169
 C         3.084998         0.978179         1.636346
 O         3.467703        -0.406111         1.296686
 C         2.518305        -0.303752         0.193306
 C         2.658263         1.269793         0.278305
 C         1.551450         1.082749         1.341402
 C         1.140315        -0.261713         0.805141
 C         0.070390        -0.230593        -0.260549
 O         0.680787        -1.134986         1.794384
 H         3.555293         0.966416         3.700657
 H         4.930519         1.485403         2.587409
 H         3.452776         2.493432         3.007490
 H         2.757772        -1.099509        -0.566791
 H         2.878859         2.141645        -0.247164
 H         0.971821         1.857505         1.968162
 H         0.185562         0.535211        -0.946521
 H         0.006029        -1.170097        -0.845156
 H        -0.884514         0.000633         0.353719
 H         1.474404        -1.217527         2.464105
