19
Iteration:  4595charge 0 multiplicity 1
 C         3.712009         1.654948         2.802527
 C         3.119803         0.896353         1.680059
 O         3.458631        -0.504188         1.370918
 C         2.580792        -0.362840         0.212857
 C         2.784248         1.283044         0.260219
 C         1.615481         1.155725         1.240016
 C         1.112138        -0.235155         0.794269
 C        -0.018594        -0.253928        -0.335249
 O         0.715014        -1.180400         1.838051
 H         4.530064         2.289403         2.543728
 H         2.989567         2.258682         3.258809
 H         3.937546         0.959898         3.607224
 H         2.733958        -1.132705        -0.567374
 H         2.930219         2.176458        -0.312317
 H         0.959915         1.949321         1.655230
 H         0.245191         0.608644        -1.107279
 H        -0.226743        -1.162771        -0.846989
 H        -0.872031         0.209144         0.227222
 H         1.543925        -1.128836         2.426242
