19
Iteration:  3936
 C         3.872719         1.595180         2.875471
 C         3.068101         0.901100         1.692230
 O         3.482343        -0.405953         1.379145
 C         2.621154        -0.286552         0.175800
 C         2.605690         1.326699         0.209098
 C         1.570859         1.162826         1.313344
 C         1.108132        -0.216057         0.759758
 C        -0.074737        -0.340411        -0.263369
 O         0.779676        -1.206692         1.754670
 H         3.835517         0.705053         3.565012
 H         4.871826         1.989763         2.633797
 H         3.129654         2.303023         3.269964
 H         2.834510        -0.967601        -0.648013
 H         2.952764         2.162905        -0.464261
 H         0.890549         1.874792         1.861423
 H        -0.039238         0.452587        -1.158971
 H        -0.052432        -1.342260        -0.759628
 H        -1.036577        -0.087934         0.255806
 H         1.578516        -1.260305         2.239747
