19
Iteration:  1502charge 0 multiplicity 1
 C         3.831208         1.521807         2.815077
 C         3.035394         0.898346         1.675473
 O         3.300354        -0.545723         1.385217
 C         2.499184        -0.267187         0.176535
 C         2.832142         1.199940         0.187052
 C         1.666529         1.238487         1.232946
 C         1.092384        -0.143849         0.840726
 C        -0.144943        -0.234896        -0.142107
 O         0.885060        -1.140553         1.746352
 H         3.585816         1.032261         3.819983
 H         4.913919         1.495769         2.578240
 H         3.698122         2.701319         2.887664
 H         2.728993        -1.050808        -0.549019
 H         3.380919         1.976786        -0.425797
 H         1.058895         2.176469         1.553371
 H        -1.016775        -0.501603         0.414262
 H        -0.432679         0.758283        -0.792646
 H        -0.039339        -1.029519        -1.001865
 H         1.826790        -1.392667         2.067850
