19
Iteration:  4638
 C         3.759104         1.589969         2.850845
 C         3.044549         0.938452         1.673498
 O         3.264525        -0.494303         1.520056
 C         2.588479        -0.344768         0.195042
 C         2.835522         1.274896         0.274746
 C         1.598548         1.172116         1.150026
 C         1.135337        -0.223586         0.635217
 C        -0.127001        -0.288707        -0.247678
 O         0.915577        -1.082417         1.789390
 H         4.245976         2.537038         2.681038
 H         3.139482         1.742318         3.693625
 H         4.547251         0.939518         3.267707
 H         2.848860        -1.168527        -0.501487
 H         3.128758         2.086642        -0.379573
 H         1.100424         2.057202         1.536176
 H        -0.159441         0.288336        -1.242551
 H        -0.082671        -1.295163        -0.560414
 H        -1.062343        -0.105579         0.314117
 H         1.812897        -1.531118         1.946662
