19
Iteration:  1339charge 0 multiplicity 1
 C         3.974395         1.542176         2.709190
 C         3.085828         0.966431         1.661820
 O         3.350823        -0.477508         1.436090
 C         2.538537        -0.307742         0.242338
 C         2.654145         1.188260         0.190361
 C         1.616419         1.220195         1.329613
 C         1.068652        -0.231466         0.841868
 C        -0.059809        -0.107138        -0.235805
 O         0.784895        -1.264200         1.747300
 H         3.927495         0.912578         3.623881
 H         4.958585         1.711281         2.295197
 H         3.389021         2.464272         2.947341
 H         2.612180        -1.029791        -0.575789
 H         3.140706         1.904970        -0.446926
 H         0.976424         1.952778         1.624933
 H        -0.609355         0.755507         0.142269
 H         0.335402         0.279480        -1.307968
 H        -0.648457        -1.115712        -0.384406
 H         1.621859        -1.481136         2.362848
