19
Iteration:  3779charge 0 multiplicity 1
 C         3.754417         1.549620         2.829967
 C         3.018672         0.907108         1.713381
 O         3.361571        -0.459730         1.279322
 C         2.552951        -0.248221         0.135027
 C         2.698271         1.254070         0.167445
 C         1.601751         1.164236         1.288531
 C         1.116202        -0.274066         0.831929
 C         0.017681        -0.212914        -0.296677
 O         0.863298        -1.172784         1.912414
 H         3.500665         1.117957         3.799428
 H         4.845746         1.346024         2.782787
 H         3.493155         2.563196         3.018933
 H         2.889107        -0.941710        -0.669446
 H         2.909949         2.119659        -0.565410
 H         0.993943         1.979329         1.652211
 H         0.122194         0.603382        -0.977002
 H         0.149781        -1.218753        -0.643599
 H        -0.960337        -0.125912         0.224092
 H         1.753253        -1.262621         2.358456
