19
Iteration:   557
 C         3.974142         1.694418         2.614196
 C         3.085972         0.897142         1.681007
 O         3.266659        -0.534801         1.474549
 C         2.516048        -0.319420         0.200547
 C         2.745058         1.248663         0.316446
 C         1.617127         1.085703         1.444671
 C         1.076578        -0.220860         0.782127
 C        -0.023799        -0.142986        -0.236052
 O         0.763710        -1.226057         1.690703
 H         3.929961         1.484987         3.742229
 H         4.965295         1.684844         2.185606
 H         3.649591         2.676205         2.435877
 H         2.879950        -0.973256        -0.649108
 H         2.960349         1.990447        -0.458343
 H         1.073555         1.802837         1.906595
 H        -1.008177         0.021638         0.300834
 H         0.210014         0.732911        -0.959764
 H        -0.281418        -1.070941        -0.669978
 H         1.650969        -1.357171         1.978000
