19
Iteration:  4268
 C         3.846211         1.725584         2.593709
 C         2.991581         0.978291         1.699234
 O         3.413874        -0.359139         1.465526
 C         2.643309        -0.352708         0.241377
 C         2.535354         1.184774         0.296041
 C         1.547305         1.055670         1.514045
 C         1.114103        -0.245724         0.881287
 C         0.112429        -0.057345        -0.304013
 O         0.763766        -1.443777         1.590862
 H         3.521894         2.194936         3.538287
 H         4.693850         1.072629         2.873653
 H         4.369243         2.624896         2.135133
 H         2.983951        -1.075374        -0.497663
 H         2.790518         1.928292        -0.414920
 H         0.815354         1.741026         1.832255
 H         0.299788         0.779364        -0.907147
 H         0.136758        -0.953703        -0.856773
 H        -0.944926         0.087058         0.060877
 H         1.419099        -1.285726         2.361392
