19
Iteration:   580
 C         3.876162         1.568520         2.746812
 C         3.024697         0.924993         1.658703
 O         3.345715        -0.471758         1.400484
 C         2.570116        -0.346799         0.177561
 C         2.682839         1.219679         0.257053
 C         1.599043         1.186125         1.249204
 C         1.115052        -0.193193         0.829147
 C        -0.078403        -0.118364        -0.185634
 O         0.867344        -1.236770         1.767259
 H         3.587182         0.941489         3.673370
 H         4.860385         1.272135         2.483222
 H         3.831124         2.601230         2.925002
 H         2.742500        -1.028550        -0.677468
 H         3.055013         1.933179        -0.463044
 H         1.031491         1.950646         1.529110
 H        -0.969003         0.375123         0.275012
 H         0.199197         0.411412        -1.162647
 H        -0.546402        -1.074663        -0.309395
 H         1.741185        -1.199883         2.334535
