19
Iteration:  3827
 C         3.870694         1.864150         2.725914
 C         3.109842         0.967219         1.744503
 O         3.388653        -0.464941         1.504040
 C         2.578973        -0.372023         0.139634
 C         2.750797         1.213290         0.285622
 C         1.611654         1.065630         1.327606
 C         1.078192        -0.309408         0.774891
 C        -0.124685        -0.068324        -0.165126
 O         0.755767        -1.439955         1.587664
 H         3.747232         2.040011         3.800677
 H         4.883454         1.550975         2.695161
 H         3.803446         2.916532         2.429034
 H         2.778993        -1.004645        -0.710562
 H         3.001872         1.966996        -0.381650
 H         0.946942         1.829962         1.801664
 H         0.084508         1.010667        -0.666199
 H        -0.116800        -0.969643        -0.859687
 H        -1.044389         0.098302         0.387320
 H         1.512622        -1.564859         2.124938
