19
Iteration:  2047charge 0 multiplicity 1
 C         4.173203         1.762144         2.526838
 C         3.034359         0.940555         1.823983
 O         3.378650        -0.370444         1.445367
 C         2.530068        -0.318968         0.268863
 C         2.567021         1.248759         0.352775
 C         1.502989         1.052284         1.445090
 C         1.135645        -0.325964         0.867456
 C         0.119470        -0.020356        -0.343097
 O         0.575329        -1.479168         1.599241
 H         4.418892         1.339897         3.563990
 H         5.144660         1.693037         2.110622
 H         3.951954         2.815783         2.605750
 H         2.995420        -0.936871        -0.584032
 H         2.633554         2.165309        -0.358857
 H         0.729127         1.594955         2.028815
 H         0.375457         0.809713        -0.889778
 H        -0.168716        -0.943305        -0.896879
 H        -0.817823         0.436821         0.211409
 H         1.126552        -1.715457         2.280010
