19
Iteration:  2309charge 0 multiplicity 1
 C         3.987648         1.785568         2.497241
 C         3.050559         0.943946         1.774732
 O         3.379419        -0.503983         1.527543
 C         2.555052        -0.421658         0.256309
 C         2.652224         1.202255         0.363534
 C         1.576248         1.050767         1.525640
 C         1.137611        -0.236998         0.811223
 C         0.031001         0.023763        -0.298612
 O         0.677942        -1.343006         1.549450
 H         4.556011         1.267131         3.334668
 H         4.647130         2.137371         1.652712
 H         3.481081         2.581806         3.028344
 H         2.721483        -1.343095        -0.331265
 H         2.836053         1.999041        -0.363566
 H         0.935510         1.878703         1.735005
 H         0.235302         0.871069        -0.975836
 H        -0.094221        -0.909117        -0.895152
 H        -0.983779         0.016878         0.204322
 H         1.276353        -1.391050         2.308846
