19
Iteration:  2491
 C         3.980458         1.796992         2.583578
 C         3.096781         0.937397         1.718329
 O         3.457744        -0.482241         1.382390
 C         2.505088        -0.357577         0.271845
 C         2.600955         1.251159         0.354540
 C         1.549760         0.970546         1.589089
 C         1.082236        -0.166387         0.853873
 C         0.157005        -0.073416        -0.372745
 O         0.605924        -1.352650         1.605970
 H         4.189659         1.298489         3.535539
 H         4.850918         2.193269         2.151695
 H         3.450803         2.684954         2.850008
 H         2.630152        -1.125700        -0.556759
 H         2.718440         2.132477        -0.380776
 H         1.055958         1.744259         2.153120
 H         0.302151         0.805314        -0.866096
 H         0.304607        -0.976365        -0.964148
 H        -0.931270        -0.262580        -0.009225
 H         1.154603        -1.709350         2.376061
