19
Iteration:  2269
 C         3.973494         1.801744         2.587943
 C         3.071309         0.921025         1.724186
 O         3.390287        -0.447141         1.496927
 C         2.554518        -0.405617         0.289609
 C         2.700213         1.163347         0.301579
 C         1.612405         1.025589         1.449471
 C         1.125687        -0.263371         0.761624
 C        -0.013672         0.038461        -0.251256
 O         0.639709        -1.367801         1.611804
 H         4.159599         1.389194         3.542721
 H         4.928530         1.954323         2.084445
 H         3.485082         2.784587         2.759483
 H         2.715660        -1.148375        -0.463224
 H         2.771477         2.186879        -0.218357
 H         1.013003         1.820824         1.751100
 H         0.221123         0.749466        -1.152131
 H        -0.205223        -0.933034        -0.694322
 H        -0.831889         0.415312         0.252233
 H         1.387426        -1.827135         2.129634
