19
Iteration:  2549
 C         4.024361         1.715284         2.575429
 C         3.023205         1.007271         1.732648
 O         3.451197        -0.454372         1.509540
 C         2.579299        -0.380064         0.287648
 C         2.500242         1.237931         0.323283
 C         1.497518         1.094963         1.495953
 C         1.170840        -0.303441         0.786104
 C         0.041474        -0.085792        -0.250196
 O         0.674576        -1.329206         1.538397
 H         4.148802         1.189883         3.539341
 H         5.053974         1.726692         2.111819
 H         3.515653         2.611764         2.954605
 H         3.007467        -0.884433        -0.539633
 H         2.749348         1.976425        -0.365333
 H         0.924152         1.872271         2.022057
 H         0.356125         0.789348        -0.983534
 H        -0.119721        -0.925284        -0.908315
 H        -0.750056         0.296461         0.322671
 H         1.467243        -1.818214         1.757739
