19
Iteration:  2509charge 0 multiplicity 1
 C         4.071731         1.845057         2.546707
 C         3.107040         0.913395         1.731561
 O         3.435832        -0.525601         1.424825
 C         2.514820        -0.302320         0.300448
 C         2.500715         1.217264         0.482171
 C         1.571391         1.138216         1.555938
 C         1.044570        -0.369761         0.819491
 C         0.177462        -0.070023        -0.379227
 O         0.597182        -1.419164         1.568834
 H         4.608452         1.313899         3.329801
 H         4.890216         2.294519         1.867011
 H         3.410862         2.761060         2.829936
 H         2.824779        -0.687527        -0.686403
 H         2.677724         1.992768        -0.213512
 H         0.814787         1.880443         2.059113
 H         0.396476         0.988229        -0.804250
 H         0.275028        -0.873975        -1.166002
 H        -0.879053        -0.009951        -0.202205
 H         1.009291        -1.286867         2.493768
