19
Iteration:  4026charge 0 multiplicity 1
 C         3.775962         1.733746         2.731111
 C         3.075424         0.922249         1.695070
 O         3.520109        -0.438917         1.337362
 C         2.601354        -0.262142         0.197509
 C         2.611081         1.301953         0.331896
 C         1.568349         1.060762         1.426313
 C         1.153250        -0.273286         0.812743
 C         0.042528        -0.203315        -0.231192
 O         0.683486        -1.324360         1.643837
 H         3.237992         1.550326         3.605465
 H         4.796306         1.425600         2.930855
 H         3.938193         2.788069         2.538391
 H         2.880738        -0.798400        -0.731737
 H         2.565368         2.110605        -0.368907
 H         0.916028         1.697588         1.979657
 H         0.360159         0.462651        -0.951672
 H        -0.128421        -1.187661        -0.678926
 H        -0.814738         0.250836         0.398144
 H         1.473171        -1.713248         2.099599
