19
Iteration:  1214
 C         4.020951         1.663216         2.623519
 C         3.031746         0.958022         1.684902
 O         3.371470        -0.450070         1.488320
 C         2.536084        -0.369465         0.268614
 C         2.691097         1.161523         0.264082
 C         1.559857         1.160206         1.339341
 C         1.095640        -0.258533         0.858003
 C         0.008121        -0.009825        -0.270883
 O         0.728156        -1.367026         1.660243
 H         4.087281         1.113489         3.567151
 H         5.027787         1.577688         2.139243
 H         3.694173         2.736788         2.684094
 H         2.682147        -1.125519        -0.477475
 H         2.914737         1.964106        -0.429600
 H         0.920557         2.090399         1.831532
 H        -0.923381         0.199943         0.431810
 H         0.106990         0.951018        -0.835574
 H        -0.213415        -0.982792        -0.839549
 H         1.201398        -1.384472         2.426633
