19
Iteration:  4176charge 0 multiplicity 1
 C         3.588969         1.517180         2.927639
 C         3.031840         0.944615         1.651811
 O         3.430397        -0.445733         1.324326
 C         2.588100        -0.247807         0.115154
 C         2.705275         1.274940         0.154774
 C         1.627931         1.163163         1.262335
 C         1.123158        -0.227245         0.772428
 C        -0.053069        -0.299953        -0.229737
 O         0.936922        -1.168217         1.856667
 H         3.447745         0.831204         3.833696
 H         4.707061         1.498158         2.743048
 H         3.239137         2.485509         3.324249
 H         2.942566        -0.946308        -0.661508
 H         2.854694         2.059740        -0.587023
 H         0.995854         1.953659         1.669661
 H         0.148494         0.635195        -0.806640
 H        -0.243688        -1.290798        -0.717113
 H        -0.825057         0.042989         0.434271
 H         1.930003        -1.205408         2.099422
