19
Iteration:  4636
 C         3.747470         1.594242         2.837710
 C         3.025745         0.942020         1.686468
 O         3.264155        -0.508591         1.513261
 C         2.600382        -0.332371         0.190507
 C         2.840990         1.265384         0.258780
 C         1.617510         1.174167         1.175095
 C         1.145316        -0.220315         0.619180
 C        -0.123168        -0.296131        -0.246880
 O         0.917324        -1.073247         1.782729
 H         4.289377         2.518882         2.669746
 H         3.059504         1.793751         3.731296
 H         4.577753         0.913633         3.288691
 H         2.823455        -1.184978        -0.465810
 H         3.092277         2.083022        -0.332464
 H         1.083464         2.067660         1.600096
 H        -0.193408         0.252631        -1.140728
 H        -0.150384        -1.336997        -0.568007
 H        -1.076493        -0.098616         0.332513
 H         1.756961        -1.479854         1.982683
