19
Iteration:  3499
 C         3.657827         1.561579         2.819406
 C         3.012949         0.926414         1.606957
 O         3.386444        -0.492479         1.381701
 C         2.535155        -0.278268         0.072910
 C         2.686474         1.202152         0.237676
 C         1.602743         1.201542         1.275552
 C         1.202243        -0.225567         0.778149
 C         0.023210        -0.166881        -0.126608
 O         0.904119        -1.199230         1.805153
 H         3.491346         0.827433         3.752744
 H         4.789961         1.708525         2.664260
 H         3.165559         2.531132         3.038983
 H         2.740696        -1.024879        -0.659380
 H         3.087002         1.922834        -0.364325
 H         0.912134         1.976272         1.694117
 H        -0.018695         0.877931        -0.683023
 H         0.060567        -1.047096        -0.835061
 H        -0.888807        -0.186010         0.345286
 H         1.783728        -1.432786         2.170615
