19
Iteration:  4949
 C         3.935910         1.835958         2.504623
 C         3.052935         0.928623         1.747128
 O         3.426988        -0.486163         1.627381
 C         2.571651        -0.469175         0.415788
 C         2.744567         1.096680         0.274279
 C         1.566320         1.179855         1.366189
 C         1.072608        -0.273230         0.852217
 C         0.125887        -0.000082        -0.372115
 O         0.548766        -1.324912         1.570156
 H         3.484027         2.022755         3.469431
 H         4.952875         1.428860         2.712134
 H         4.032968         2.768830         1.921275
 H         2.915506        -1.321990        -0.202074
 H         3.100919         1.753257        -0.542370
 H         0.853428         1.886797         1.742307
 H         0.475387         0.845035        -0.777038
 H         0.004492        -0.753749        -1.220172
 H        -0.931215         0.053107        -0.001473
 H         1.070165        -1.560192         2.374197
