19
Iteration:  1037charge 0 multiplicity 1
 C         3.789629         1.525392         2.819573
 C         3.104068         0.910426         1.657446
 O         3.469634        -0.471371         1.286438
 C         2.592424        -0.392948         0.125620
 C         2.769210         1.199992         0.203448
 C         1.640876         1.180192         1.314620
 C         1.057535        -0.158205         0.844410
 C        -0.100245        -0.214660        -0.211314
 O         0.710733        -1.076330         1.856193
 H         3.367637         1.135069         3.745038
 H         4.818827         1.533730         2.761735
 H         3.426586         2.572406         2.870789
 H         2.979413        -1.156530        -0.620646
 H         3.258681         1.864031        -0.586965
 H         1.059872         2.026701         1.607515
 H        -1.053647        -0.286045         0.414521
 H        -0.240253         0.675010        -0.823920
 H         0.060841        -0.970525        -0.858823
 H         1.611124        -1.491342         2.247340
