19
Iteration:  3075
 C         3.784987         1.412129         2.863552
 C         3.080180         0.950268         1.703020
 O         3.270216        -0.434215         1.350162
 C         2.618568        -0.255025         0.088497
 C         2.679033         1.257120         0.173270
 C         1.639363         1.223419         1.327089
 C         1.164251        -0.203429         0.706426
 C        -0.085312        -0.307673        -0.163697
 O         0.899554        -1.113589         1.784992
 H         3.762769         0.545358         3.615085
 H         4.815270         1.766994         2.768228
 H         3.206401         2.194900         3.398935
 H         2.771356        -0.871194        -0.774230
 H         3.072500         1.929881        -0.481205
 H         1.020172         2.116924         1.666895
 H        -0.028462         0.078869        -1.215466
 H        -0.303847        -1.381306         0.048798
 H        -0.872102         0.208249         0.251834
 H         1.684682        -1.001732         2.259471
