19
Iteration:   735
 C         3.993824         1.844041         2.500282
 C         3.186197         0.916349         1.735876
 O         3.438380        -0.515191         1.452693
 C         2.543351        -0.376082         0.227656
 C         2.613650         1.165262         0.373727
 C         1.595758         1.015300         1.538760
 C         1.083602        -0.298731         0.838676
 C         0.064700         0.018799        -0.264830
 O         0.544804        -1.328731         1.617152
 H         4.063501         1.710482         3.589909
 H         5.030537         1.822108         2.146492
 H         3.615558         2.935034         2.339822
 H         2.836266        -1.202974        -0.308797
 H         2.599844         2.141990        -0.092066
 H         0.746862         1.833401         1.722322
 H        -0.819262         0.608734         0.121357
 H         0.454337         0.739635        -1.015252
 H        -0.126767        -0.881822        -0.987630
 H         1.306242        -1.899328         2.056110
