19
Iteration:   662charge 0 multiplicity 1
 C         3.869536         1.549052         2.734673
 C         3.038309         0.841959         1.697357
 O         3.365728        -0.542063         1.372019
 C         2.590910        -0.282757         0.107404
 C         2.708504         1.271299         0.191765
 C         1.595308         1.132192         1.340199
 C         1.050288        -0.159837         0.838745
 C        -0.079559        -0.228489        -0.189373
 O         0.823584        -1.098599         1.809168
 H         3.809287         1.178132         3.714500
 H         4.992000         1.548622         2.639211
 H         3.487149         2.596213         2.831049
 H         2.762788        -0.907832        -0.792131
 H         3.133019         2.086245        -0.393941
 H         1.029108         2.006193         1.838666
 H        -1.031071        -0.119221         0.168670
 H        -0.008132         0.561630        -0.845558
 H         0.157396        -1.104378        -0.829471
 H         1.771246        -1.340115         2.207180
