19
Iteration:  4642
 C         3.784195         1.578972         2.867391
 C         3.082972         0.932033         1.665217
 O         3.271444        -0.464846         1.524480
 C         2.574165        -0.372204         0.198304
 C         2.819627         1.281826         0.290079
 C         1.564423         1.175328         1.104578
 C         1.107263        -0.213300         0.691080
 C        -0.121726        -0.267214        -0.263936
 O         0.912065        -1.109795         1.796868
 H         4.166287         2.609595         2.639582
 H         3.131903         1.662131         3.756929
 H         4.554142         0.922532         3.187181
 H         2.935093        -1.081382        -0.565924
 H         3.215912         2.046266        -0.466568
 H         1.052031         2.058438         1.427459
 H        -0.051013         0.323363        -1.252273
 H        -0.020591        -1.356400        -0.591291
 H        -1.019503        -0.111273         0.294369
 H         1.782309        -1.520684         1.886458
