19
Iteration:  3115
 C         3.794619         1.508625         2.852745
 C         3.045697         0.900044         1.671824
 O         3.443791        -0.469414         1.265662
 C         2.519719        -0.298239         0.131863
 C         2.640617         1.218027         0.282396
 C         1.582990         1.178142         1.344002
 C         1.104961        -0.167090         0.784000
 C        -0.031651        -0.239566        -0.287779
 O         0.858711        -1.110198         1.863340
 H         3.512522         0.934792         3.690608
 H         4.887765         1.472197         2.695028
 H         3.385412         2.541386         3.083469
 H         3.002246        -0.971954        -0.630234
 H         3.076602         1.870750        -0.511026
 H         1.040503         2.063632         1.805067
 H         0.104484         0.526489        -1.209834
 H        -0.166327        -1.277869        -0.635747
 H        -0.952593         0.063634         0.234183
 H         1.801808        -1.406879         2.150540
