19
Iteration:  4409charge 0 multiplicity 1
 C         3.797344         1.591526         2.878279
 C         3.027573         0.891648         1.712283
 O         3.381657        -0.455686         1.324049
 C         2.542679        -0.243167         0.123714
 C         2.791405         1.330864         0.299515
 C         1.571113         1.134356         1.276696
 C         1.125955        -0.162702         0.665215
 C        -0.022246        -0.444865        -0.292318
 O         0.830966        -1.113749         1.832959
 H         3.715921         0.971440         3.794567
 H         4.840669         1.705882         2.654954
 H         3.199965         2.519351         3.075317
 H         2.942487        -0.908264        -0.643588
 H         3.021428         2.225337        -0.363880
 H         0.958711         1.783323         1.918330
 H         0.014434        -0.139150        -1.278479
 H        -0.085998        -1.528553        -0.231403
 H        -1.008946        -0.011382         0.142825
 H         1.412842        -0.936125         2.537169
