19
Iteration:  2544charge 0 multiplicity 1
 C         4.022734         1.714516         2.533201
 C         3.019406         1.038752         1.743727
 O         3.452071        -0.460336         1.508194
 C         2.577270        -0.412343         0.336503
 C         2.519664         1.245460         0.338350
 C         1.507173         1.084694         1.520578
 C         1.139545        -0.303648         0.755716
 C         0.078585        -0.054632        -0.274961
 O         0.658663        -1.334879         1.527697
 H         4.187882         1.150120         3.463629
 H         4.910645         1.873329         1.956667
 H         3.719206         2.680346         2.988363
 H         3.007627        -0.844303        -0.628729
 H         2.775403         2.151558        -0.327042
 H         0.806954         1.678173         2.125933
 H         0.375597         0.704225        -0.891251
 H        -0.062617        -0.974795        -0.889249
 H        -0.871709         0.198152         0.356708
 H         1.415750        -1.914697         1.920864
