19
Iteration:  2084charge 0 multiplicity 1
 C         3.949971         1.830656         2.545451
 C         3.127955         0.890490         1.722750
 O         3.507624        -0.430615         1.398784
 C         2.532109        -0.372640         0.252699
 C         2.576998         1.158887         0.369711
 C         1.623334         1.018887         1.653686
 C         1.119762        -0.224638         0.929336
 C         0.100489        -0.021718        -0.369187
 O         0.537944        -1.370453         1.546128
 H         4.235089         1.399987         3.470460
 H         4.846526         2.099140         1.925471
 H         3.337550         2.728004         2.724160
 H         2.605389        -1.053347        -0.605935
 H         2.581942         1.928279        -0.315531
 H         1.034653         1.764226         2.319167
 H         0.484143         0.514538        -1.304688
 H        -0.183569        -0.996520        -0.731658
 H        -0.707598         0.448860        -0.019377
 H         1.084096        -1.646408         2.254653
