19
Iteration:  4670charge 0 multiplicity 1
 C         3.803759         1.588907         2.790721
 C         2.986269         1.017352         1.653533
 O         3.381139        -0.454882         1.467321
 C         2.557934        -0.403823         0.282372
 C         2.694170         1.214571         0.180750
 C         1.585287         1.205755         1.262840
 C         1.155914        -0.256529         0.785251
 C         0.104025        -0.210797        -0.326049
 O         0.740630        -1.186347         1.783098
 H         3.682480         2.666684         2.947540
 H         3.420250         1.066799         3.699201
 H         4.879801         1.228311         2.635022
 H         2.730368        -1.149494        -0.518883
 H         2.960526         1.906134        -0.618928
 H         1.185078         2.166718         1.572176
 H         0.463687         0.458312        -1.133023
 H         0.087706        -1.197013        -0.707743
 H        -0.882104         0.026646         0.104602
 H         1.287942        -1.040118         2.547833
