19
Iteration:   843charge 0 multiplicity 1
 C         3.879484         1.519242         2.808424
 C         3.047522         0.956198         1.672759
 O         3.240934        -0.586341         1.397944
 C         2.521087        -0.308576         0.039601
 C         2.733331         1.197880         0.283156
 C         1.625103         1.249909         1.270324
 C         1.116029        -0.151221         0.727533
 C        -0.047839        -0.299260        -0.156073
 O         0.890352        -1.056490         1.788655
 H         3.663596         0.929477         3.738042
 H         4.942436         1.383978         2.688514
 H         3.487646         2.590376         2.994449
 H         2.813856        -0.930645        -0.764059
 H         3.284895         1.850753        -0.338148
 H         0.958352         2.107308         1.664563
 H        -1.042853        -0.389611         0.441312
 H        -0.128562         0.609443        -0.784893
 H         0.136063        -1.224232        -0.693055
 H         1.699883        -0.872549         2.399803
