19
Iteration:  4832charge 0 multiplicity 1
 C         3.660632         1.571348         2.837792
 C         3.076233         0.853281         1.679276
 O         3.438635        -0.552683         1.337776
 C         2.601494        -0.371479         0.209679
 C         2.817984         1.168210         0.251155
 C         1.655529         1.249818         1.082954
 C         1.070603        -0.164974         0.834113
 C         0.059203        -0.355486        -0.320156
 O         0.650903        -0.903803         1.946493
 H         4.020961         0.769688         3.509528
 H         4.603399         2.122164         2.601542
 H         2.976956         2.283018         3.410503
 H         2.914943        -1.051705        -0.596296
 H         3.409915         1.742379        -0.512124
 H         1.199147         2.012440         1.630224
 H         0.335591         0.248045        -1.269548
 H         0.039016        -1.440230        -0.735593
 H        -1.067837        -0.215095        -0.055889
 H         1.247984        -0.830781         2.658793
