19
Iteration:  3949charge 0 multiplicity 1
 C         3.747178         1.520912         2.925060
 C         3.076409         1.045514         1.691176
 O         3.400815        -0.429450         1.351138
 C         2.580843        -0.239002         0.124183
 C         2.736359         1.272121         0.253542
 C         1.583379         1.156896         1.202115
 C         1.076391        -0.280218         0.769530
 C        -0.069697        -0.303533        -0.184283
 O         0.854891        -1.215134         1.757447
 H         3.900377         0.837048         3.705012
 H         4.747937         1.801287         2.610974
 H         3.445544         2.471582         3.330860
 H         2.967998        -0.882437        -0.692147
 H         2.767675         2.034337        -0.608747
 H         1.097989         2.049356         1.548451
 H         0.058098         0.557801        -0.855901
 H        -0.099728        -1.260137        -0.747750
 H        -1.090020        -0.307808         0.427649
 H         1.758665        -1.320399         2.250653
