19
Iteration:  4548charge 0 multiplicity 1
 C         3.915409         1.693001         2.629311
 C         3.037213         1.044064         1.699062
 O         3.390546        -0.409398         1.438086
 C         2.573824        -0.373217         0.328708
 C         2.625429         1.265764         0.344997
 C         1.510695         1.139600         1.365737
 C         1.118695        -0.348036         0.810628
 C         0.154797        -0.140186        -0.328429
 O         0.646104        -1.363080         1.672670
 H         4.823365         1.200003         2.355250
 H         4.079169         2.784126         2.311016
 H         3.551537         1.563007         3.701906
 H         2.884974        -1.192365        -0.339391
 H         2.929601         2.082176        -0.357425
 H         1.096550         2.034307         1.885409
 H         0.655393         0.448782        -1.015831
 H         0.073882        -1.166414        -0.811846
 H        -0.844477         0.380916        -0.042562
 H         1.336507        -1.414308         2.429546
