19
Iteration:  3808charge 0 multiplicity 1
 C         3.764989         1.709382         2.678498
 C         3.084541         0.892369         1.668686
 O         3.377075        -0.507740         1.442530
 C         2.581838        -0.331559         0.261902
 C         2.669557         1.176071         0.249716
 C         1.563085         1.135378         1.397258
 C         1.150521        -0.241509         0.787751
 C        -0.062826        -0.070060        -0.234098
 O         0.890961        -1.279790         1.660740
 H         3.249522         1.509448         3.630652
 H         4.837019         1.403962         2.830833
 H         3.617083         2.806257         2.381079
 H         2.926917        -1.032296        -0.510047
 H         2.845322         2.001365        -0.440926
 H         1.012949         2.057551         1.809152
 H        -0.105475         0.879479        -0.708125
 H        -0.097761        -0.962933        -0.820684
 H        -0.924277        -0.129480         0.487767
 H         1.749160        -1.444124         2.055410
