19
Iteration:   858
 C         3.818029         1.569486         2.809524
 C         3.107636         0.826484         1.679382
 O         3.356664        -0.564561         1.320140
 C         2.536756        -0.291523         0.188731
 C         2.830773         1.231003         0.229560
 C         1.591761         1.153697         1.286338
 C         1.066526        -0.138045         0.790539
 C        -0.119130        -0.254022        -0.228003
 O         0.829887        -1.024902         1.840175
 H         3.509793         1.110552         3.720366
 H         4.933721         1.608756         2.670956
 H         3.618311         2.610428         2.923717
 H         2.726989        -0.938248        -0.672472
 H         3.118752         2.082869        -0.448029
 H         1.110897         1.964231         1.666991
 H        -0.952264        -0.516108         0.321794
 H        -0.285712         0.556450        -0.901982
 H        -0.031511        -1.187235        -0.926177
 H         1.693908        -1.285027         2.093650
