19
Iteration:  2013charge 0 multiplicity 1
 C         3.931164         1.616109         2.655224
 C         3.058495         0.854491         1.686334
 O         3.385706        -0.492678         1.444734
 C         2.478906        -0.306997         0.230923
 C         2.590242         1.253449         0.274975
 C         1.577495         1.128754         1.431644
 C         1.111962        -0.168395         0.795293
 C        -0.006589        -0.084938        -0.245129
 O         0.852502        -1.276739         1.649386
 H         3.509283         1.397581         3.686796
 H         4.976751         1.472908         2.534060
 H         3.655096         2.726375         2.598192
 H         2.873387        -0.974737        -0.530240
 H         2.859192         2.085886        -0.406057
 H         1.015796         1.711193         2.063105
 H         0.136207         0.767246        -0.916458
 H         0.009326        -0.950037        -0.902915
 H        -1.008127        -0.161434         0.393964
 H         1.676525        -1.540177         2.106935
