19
Iteration:  3963
 C         3.717123         1.539776         2.862080
 C         2.977393         0.965842         1.653502
 O         3.300956        -0.413173         1.372164
 C         2.604254        -0.294313         0.125251
 C         2.785967         1.257298         0.174789
 C         1.554665         1.192907         1.277335
 C         1.181306        -0.198082         0.743754
 C        -0.048347        -0.235924        -0.143284
 O         0.977316        -1.242904         1.784528
 H         3.386432         0.816833         3.620319
 H         4.812572         1.445361         2.836667
 H         3.177057         2.395059         3.261677
 H         2.856547        -0.994572        -0.700932
 H         3.139183         2.067406        -0.404732
 H         0.817424         1.947545         1.508402
 H        -0.240009         0.576106        -0.755189
 H        -0.091235        -1.150334        -0.753391
 H        -0.991011        -0.220038         0.501950
 H         1.834850        -1.373480         2.138046
