19
Iteration:  2634charge 0 multiplicity 1
 C         3.702544         1.381234         2.969108
 C         3.111420         0.941592         1.645431
 O         3.376999        -0.429228         1.269780
 C         2.543619        -0.245365         0.102047
 C         2.732824         1.309179         0.202508
 C         1.592750         1.204562         1.177143
 C         1.126466        -0.210225         0.745302
 C        -0.096126        -0.269277        -0.175654
 O         0.911036        -1.118922         1.922764
 H         3.080839         0.959329         3.783557
 H         4.773367         1.189214         2.945619
 H         3.788098         2.440226         2.986429
 H         2.940362        -0.768394        -0.789828
 H         3.344159         1.898004        -0.407316
 H         0.928430         1.987109         1.621393
 H        -0.151778         0.377437        -1.103414
 H        -0.254947        -1.228292        -0.637386
 H        -1.064347        -0.165268         0.447871
 H         1.864088        -1.512695         2.164996
