19
Iteration:  3224
 C         3.961165         1.749530         2.555574
 C         3.076211         0.920517         1.755103
 O         3.458075        -0.460322         1.427277
 C         2.542245        -0.395141         0.281825
 C         2.589617         1.198307         0.425846
 C         1.494406         1.080589         1.438783
 C         1.074709        -0.209532         0.831905
 C         0.077049        -0.032302        -0.314291
 O         0.719172        -1.395403         1.588855
 H         4.143945         1.400711         3.515961
 H         4.990963         1.894372         2.173547
 H         3.465310         2.759556         2.488194
 H         2.667149        -1.183016        -0.499933
 H         2.790123         2.028784        -0.126963
 H         0.938428         1.973396         1.871469
 H         0.609551         0.569263        -1.085331
 H        -0.206988        -0.874971        -0.924950
 H        -0.830761         0.520753         0.224727
 H         1.224815        -1.416333         2.495056
