19
Iteration:  4282charge 0 multiplicity 1
 C         3.900401         1.877577         2.590898
 C         3.075042         0.952692         1.692074
 O         3.502634        -0.397745         1.505866
 C         2.542332        -0.369683         0.296650
 C         2.580578         1.190634         0.338701
 C         1.527605         0.990030         1.503002
 C         1.143440        -0.343675         0.776587
 C         0.052858        -0.066055        -0.271769
 O         0.704924        -1.381580         1.554645
 H         3.071980         2.127317         3.319517
 H         4.675255         1.304408         3.045990
 H         4.255748         2.738548         2.027907
 H         2.781864        -1.080477        -0.494072
 H         2.721567         2.085449        -0.299756
 H         0.970991         1.784539         1.982463
 H         0.284299         1.031193        -0.779223
 H         0.059348        -0.790758        -1.121335
 H        -0.906905         0.003851         0.197866
 H         1.315574        -1.785672         2.127106
