19
Iteration:  1773charge 0 multiplicity 1
 C         3.880794         1.564568         2.723249
 C         3.068203         0.850119         1.687550
 O         3.334993        -0.511033         1.397821
 C         2.530080        -0.273040         0.206352
 C         2.664317         1.242139         0.301404
 C         1.622176         1.136183         1.412484
 C         1.113977        -0.159813         0.742802
 C        -0.038438        -0.214291        -0.240003
 O         0.825597        -1.145189         1.682456
 H         3.923552         1.135598         3.698293
 H         4.872791         1.420807         2.415416
 H         3.591689         2.643128         2.846932
 H         2.793595        -0.874184        -0.625132
 H         3.087053         2.005486        -0.407099
 H         0.931207         1.933303         1.956149
 H        -0.146067         0.745415        -0.737417
 H         0.000619        -1.015069        -0.976705
 H        -0.910416        -0.282358         0.450473
 H         1.606608        -1.227092         2.171709
