19
Iteration:  3324charge 0 multiplicity 1
 C         3.704204         1.525260         2.817986
 C         2.994410         0.906721         1.654269
 O         3.291204        -0.520635         1.393161
 C         2.580332        -0.269155         0.121298
 C         2.786773         1.265774         0.213298
 C         1.542147         1.245681         1.237629
 C         1.134223        -0.179794         0.763261
 C        -0.001355        -0.207458        -0.104452
 O         0.951296        -1.198479         1.782567
 H         3.221231         1.091025         3.717021
 H         4.783599         1.329737         2.807029
 H         3.549781         2.589646         2.859986
 H         2.790036        -0.945464        -0.708073
 H         3.305822         2.028011        -0.532756
 H         0.932366         1.901231         1.791972
 H        -0.090862         0.663282        -0.905407
 H         0.029015        -1.064054        -0.842741
 H        -0.816801        -0.441905         0.588778
 H         1.942324        -1.350310         2.057344
