19
Iteration:  1992charge 0 multiplicity 1
 C         3.740697         1.636002         2.841375
 C         3.107595         0.899267         1.670275
 O         3.358859        -0.555361         1.252734
 C         2.560026        -0.280754         0.054853
 C         2.771521         1.236930         0.315559
 C         1.617716         1.160474         1.322500
 C         1.097045        -0.193722         0.848676
 C        -0.097546        -0.188167        -0.162771
 O         0.862313        -1.198159         1.779537
 H         3.390580         1.284262         3.855758
 H         4.771594         1.436690         2.733862
 H         3.683115         2.745062         2.831055
 H         2.760542        -0.867255        -0.891024
 H         3.092588         2.086914        -0.319255
 H         1.156565         2.009856         1.696254
 H         0.021823         0.695319        -0.740758
 H        -0.104588        -1.025983        -0.836815
 H        -1.071834        -0.195256         0.460823
 H         1.613575        -1.619700         2.089947
