19
Iteration:  1685
 C         3.779632         1.625170         2.843453
 C         3.102930         0.862405         1.687716
 O         3.457573        -0.511197         1.205124
 C         2.536700        -0.257080         0.079223
 C         2.744778         1.232829         0.284791
 C         1.598839         1.104734         1.360938
 C         1.099099        -0.160206         0.793664
 C        -0.067211        -0.129182        -0.188063
 O         0.786019        -1.275587         1.805009
 H         3.509212         1.147232         3.784460
 H         4.878851         1.683210         2.769838
 H         3.275744         2.603359         2.945340
 H         2.621121        -0.882045        -0.792910
 H         3.153814         2.082396        -0.146258
 H         1.107511         2.066780         1.920888
 H         0.171795        -0.062274        -1.324886
 H        -0.706453        -1.014293        -0.154862
 H        -0.682185         0.720565         0.174341
 H         1.655913        -1.369970         2.397834
