19
Iteration:   336
 C         3.907976         1.672880         2.674259
 C         3.053406         0.885347         1.667193
 O         3.374352        -0.530788         1.285259
 C         2.543399        -0.339847         0.136101
 C         2.709819         1.249454         0.295586
 C         1.562467         1.107281         1.470665
 C         1.115925        -0.243577         0.800401
 C         0.012944        -0.131655        -0.220861
 O         0.748952        -1.196488         1.806126
 H         3.816423         1.258562         3.834317
 H         4.960950         1.641233         2.294002
 H         3.447504         2.713776         2.789555
 H         2.715063        -1.029873        -0.668918
 H         2.870472         2.169096        -0.288309
 H         0.937862         1.868172         2.062083
 H        -0.681971         0.629133         0.115107
 H         0.376346         0.171928        -1.181899
 H        -0.464584        -1.120543        -0.444715
 H         1.591938        -1.332289         2.230147
