19
Iteration:  2609
 C         3.637649         1.481188         2.864788
 C         3.020680         0.862774         1.656417
 O         3.473697        -0.536632         1.283751
 C         2.577679        -0.285506         0.080690
 C         2.730453         1.288667         0.271176
 C         1.603002         1.122956         1.313273
 C         1.115795        -0.179961         0.758069
 C        -0.048286        -0.165902        -0.116411
 O         0.913454        -1.075879         1.810187
 H         2.883625         1.172966         3.635144
 H         4.693660         1.313829         3.027978
 H         3.727281         2.599763         2.564664
 H         2.978626        -0.862674        -0.861789
 H         2.728421         2.136081        -0.477719
 H         1.055046         1.885799         1.766928
 H        -0.036563         0.405493        -0.950517
 H        -0.210965        -1.226570        -0.447965
 H        -1.104242        -0.008870         0.375866
 H         1.871956        -1.366695         2.012739
