19
Iteration:  2318charge 0 multiplicity 1
 C         3.990541         1.775818         2.548762
 C         3.124082         0.907036         1.641409
 O         3.384458        -0.470874         1.507188
 C         2.470155        -0.436040         0.325920
 C         2.660474         1.250078         0.330091
 C         1.552383         1.101211         1.539648
 C         1.075002        -0.242019         0.766285
 C         0.084086        -0.059993        -0.331038
 O         0.677795        -1.330734         1.619310
 H         4.416126         1.013385         3.346816
 H         4.933069         2.192652         2.083685
 H         3.447458         2.542214         3.140156
 H         2.680800        -1.171338        -0.510878
 H         2.839420         2.023262        -0.343732
 H         0.722528         1.814579         1.865873
 H         0.292963         0.825589        -0.799983
 H         0.071036        -0.859925        -1.086134
 H        -0.863205         0.227611         0.293034
 H         1.393697        -1.605333         2.222176
