19
Iteration:  1834
 C         3.937899         1.808594         2.519556
 C         3.140018         0.938424         1.631706
 O         3.464917        -0.433852         1.480600
 C         2.514317        -0.458433         0.359736
 C         2.499387         1.137402         0.267199
 C         1.637566         1.008089         1.653614
 C         1.141434        -0.239980         0.912152
 C         0.130228         0.096526        -0.218457
 O         0.571406        -1.380993         1.472916
 H         3.793626         1.384855         3.567038
 H         5.085395         1.495785         2.256182
 H         3.976597         2.863525         2.247987
 H         2.786735        -1.189706        -0.437547
 H         2.402984         2.007984        -0.361405
 H         0.855098         1.812537         1.832488
 H         0.154347         1.303678        -0.437697
 H         0.368846        -0.539382        -1.259774
 H        -0.946510        -0.048652        -0.070990
 H         1.342566        -1.812669         1.992935
