19
Iteration:  3257
 C         3.867433         1.589058         2.737094
 C         3.087833         0.926954         1.644520
 O         3.405302        -0.431645         1.339159
 C         2.606949        -0.285762         0.121022
 C         2.678425         1.311177         0.291428
 C         1.583174         1.058626         1.395532
 C         1.103492        -0.237655         0.833347
 C         0.115468        -0.183082        -0.275014
 O         0.644305        -1.232816         1.811936
 H         3.774677         0.987284         3.600281
 H         4.864924         1.952776         2.446222
 H         3.241636         2.479782         3.036802
 H         2.927084        -0.981954        -0.684941
 H         2.582117         2.119980        -0.370654
 H         1.062808         1.890217         1.905519
 H         0.435012         0.334237        -1.240162
 H        -0.156256        -1.224231        -0.494080
 H        -0.919189         0.250608         0.107105
 H         1.296430        -1.591504         2.386121
