19
Iteration:  2331
 C         3.998991         1.681632         2.652810
 C         3.151469         0.983785         1.655936
 O         3.380097        -0.469377         1.439129
 C         2.521387        -0.313132         0.275194
 C         2.561581         1.186992         0.287363
 C         1.560605         1.104524         1.385402
 C         1.062742        -0.262445         0.900983
 C         0.106281        -0.060253        -0.318111
 O         0.642814        -1.325392         1.695092
 H         4.220933         0.983617         3.524326
 H         4.931780         2.166830         2.207780
 H         3.363060         2.462379         3.052073
 H         2.843977        -1.001999        -0.513874
 H         2.855972         1.942874        -0.477259
 H         1.212728         1.857020         2.021887
 H         0.422159         0.807367        -0.940054
 H         0.116927        -0.969057        -0.961108
 H        -0.988992        -0.047520        -0.103506
 H         1.504383        -1.605433         2.057709
