19
Iteration:  3849charge 0 multiplicity 1
 C         3.926964         1.822174         2.539033
 C         3.077914         0.985508         1.741420
 O         3.395287        -0.445190         1.502654
 C         2.650098        -0.349133         0.308927
 C         2.618699         1.230076         0.342861
 C         1.579152         1.084305         1.445566
 C         1.160634        -0.279508         0.735043
 C         0.013854        -0.064367        -0.169191
 O         0.638983        -1.484052         1.513498
 H         3.712097         1.773999         3.611773
 H         4.964692         1.639779         2.534988
 H         3.702308         2.867934         2.495389
 H         2.968326        -0.982493        -0.505163
 H         2.847378         1.885771        -0.434610
 H         0.857804         1.904188         1.714009
 H         0.130003         0.876570        -0.876479
 H        -0.230827        -1.035502        -0.698533
 H        -0.786258         0.272003         0.500828
 H         1.371379        -1.757991         2.159667
