19
Iteration:  2179charge 0 multiplicity 1
 C         3.770588         1.402649         2.872472
 C         3.053267         0.916092         1.667642
 O         3.283674        -0.475383         1.342398
 C         2.543889        -0.250536         0.138644
 C         2.834036         1.331877         0.239676
 C         1.608383         1.243064         1.180199
 C         1.122397        -0.128106         0.800297
 C        -0.125900        -0.416562        -0.130256
 O         0.922300        -1.070662         1.756695
 H         3.170094         1.230603         3.848716
 H         4.793055         0.942482         2.917344
 H         3.893343         2.440880         2.743194
 H         2.694279        -1.066937        -0.642784
 H         3.166379         2.153768        -0.306223
 H         1.095775         2.108257         1.806176
 H        -0.140198         0.320067        -0.957060
 H         0.065658        -1.339977        -0.759697
 H        -1.153957        -0.251708         0.382848
 H         1.856304        -1.236617         2.237959
