19
Iteration:  3481
 C         3.832907         1.672656         2.858412
 C         3.088252         0.972772         1.668138
 O         3.316799        -0.454108         1.361295
 C         2.609912        -0.335648         0.200551
 C         2.699752         1.285357         0.207739
 C         1.617004         1.041492         1.315786
 C         1.068141        -0.276373         0.761465
 C        -0.032497        -0.149860        -0.257071
 O         0.828131        -1.254263         1.795146
 H         4.068326         0.949674         3.561031
 H         4.816376         1.995743         2.693602
 H         3.227155         2.524974         3.155274
 H         2.909695        -1.002043        -0.669938
 H         2.753052         2.048144        -0.620409
 H         0.949619         1.792728         1.739787
 H         0.105411         0.847830        -0.740716
 H        -0.002006        -0.989026        -0.972411
 H        -1.031882        -0.074875         0.302292
 H         1.698660        -1.549298         2.074332
