19
Iteration:  2302
 C         4.005998         1.805362         2.497121
 C         3.010726         0.901723         1.810904
 O         3.368379        -0.505492         1.529873
 C         2.601932        -0.374442         0.279568
 C         2.636750         1.129098         0.364966
 C         1.578003         1.044194         1.455331
 C         1.135085        -0.244349         0.812474
 C         0.013883         0.027274        -0.249755
 O         0.666792        -1.352653         1.533400
 H         4.622867         1.313316         3.158803
 H         4.681717         2.261180         1.768448
 H         3.508145         2.724049         2.831523
 H         2.905946        -1.110334        -0.454586
 H         2.849147         2.041375        -0.297437
 H         1.071948         1.894222         1.844509
 H         0.166229         0.938022        -0.998088
 H        -0.026591        -0.895045        -0.834582
 H        -0.935265         0.177353         0.149632
 H         1.213952        -1.357854         2.264550
