19
Iteration:  2901charge 0 multiplicity 1
 C         3.755034         1.579563         2.760090
 C         3.091667         0.862054         1.629794
 O         3.404568        -0.518631         1.369472
 C         2.630317        -0.262037         0.160495
 C         2.643058         1.232994         0.239507
 C         1.587459         1.096595         1.383165
 C         1.133135        -0.170225         0.778841
 C        -0.045295        -0.148764        -0.192791
 O         0.835664        -1.143792         1.770505
 H         3.806109         0.915457         3.653400
 H         4.804499         1.691007         2.568014
 H         3.172647         2.462238         3.112183
 H         2.751400        -0.844177        -0.786912
 H         2.825235         2.055776        -0.527932
 H         0.946800         1.847927         1.846246
 H         0.099494         0.319511        -1.174664
 H        -0.242902        -1.208489        -0.500203
 H        -0.820972         0.273848         0.455414
 H         1.689099        -1.457711         2.090018
