19
Iteration:  1483charge 0 multiplicity 1
 C         3.870444         1.529618         2.703424
 C         3.108025         0.874713         1.679617
 O         3.245143        -0.570147         1.450933
 C         2.556888        -0.342958         0.107546
 C         2.736714         1.246023         0.353358
 C         1.602917         1.218927         1.293507
 C         1.099171        -0.164006         0.697176
 C        -0.119126        -0.196841        -0.189346
 O         0.913400        -1.084260         1.800826
 H         3.385167         1.220693         3.644084
 H         4.898340         1.323924         2.594057
 H         3.866640         2.661737         2.475147
 H         2.774482        -1.021287        -0.653874
 H         3.019666         1.904797        -0.420563
 H         1.069370         2.013928         1.988647
 H        -0.849814        -0.806621         0.259338
 H        -0.428877         0.770167        -0.649028
 H         0.039406        -0.785574        -1.155614
 H         1.842815        -1.059218         2.235280
