19
Iteration:   109
 C         3.899012         1.694852         2.578660
 C         3.132383         0.890043         1.645248
 O         3.440198        -0.540938         1.352121
 C         2.549707        -0.409170         0.205403
 C         2.685498         1.104403         0.229070
 C         1.632827         1.069999         1.479370
 C         1.107647        -0.222434         0.864861
 C         0.070587        -0.084535        -0.249465
 O         0.547268        -1.103181         1.834832
 H         3.771195         1.346731         3.650022
 H         4.945940         1.777892         2.255943
 H         3.621281         2.763048         2.507368
 H         2.794510        -1.103336        -0.548903
 H         2.742336         1.870094        -0.559324
 H         1.186469         1.960217         1.735941
 H         0.367885         0.490726        -1.140573
 H        -0.249787        -1.049951        -0.535352
 H        -0.765092         0.537157         0.235390
 H         1.265159        -1.075793         2.460340
