19
Iteration:  2781
 C         3.948178         1.692399         2.575853
 C         3.066868         0.908524         1.699046
 O         3.440112        -0.418483         1.490885
 C         2.616835        -0.374956         0.261490
 C         2.577684         1.218163         0.309897
 C         1.586888         1.084078         1.507975
 C         1.157938        -0.251667         0.842383
 C        -0.009231        -0.037396        -0.279789
 O         0.649372        -1.328249         1.581092
 H         3.815857         1.709246         3.678102
 H         4.945212         1.335943         2.329595
 H         3.908709         2.786997         2.260547
 H         3.046493        -0.995629        -0.562415
 H         2.582132         2.048035        -0.326569
 H         1.103654         1.782909         2.051294
 H         0.060949         0.706730        -1.129195
 H        -0.251701        -0.996599        -0.846279
 H        -0.934111         0.190341         0.327820
 H         1.362233        -1.757787         2.152226
