19
Iteration:  3725
 C         3.849334         1.553958         2.813998
 C         3.028063         0.898711         1.724050
 O         3.355110        -0.458667         1.343027
 C         2.569158        -0.218774         0.072014
 C         2.702521         1.302124         0.251533
 C         1.603304         1.227292         1.312437
 C         1.064747        -0.270613         0.790978
 C         0.016885        -0.360654        -0.215073
 O         0.787287        -1.152521         1.784633
 H         4.083986         0.749478         3.509177
 H         4.802126         1.951863         2.461444
 H         3.458977         2.257350         3.469849
 H         3.005752        -0.915009        -0.657900
 H         2.958322         2.189570        -0.410923
 H         1.023762         2.080585         1.686139
 H         0.569199        -0.008573        -1.161014
 H        -0.280735        -1.431432        -0.350212
 H        -0.973093         0.168300         0.011354
 H         1.475687        -1.107245         2.482378
