19
Iteration:  4257
 C         3.920477         1.712588         2.689060
 C         3.000438         0.997807         1.712530
 O         3.390720        -0.423368         1.442250
 C         2.563145        -0.284384         0.274242
 C         2.562877         1.268997         0.270680
 C         1.464396         1.122261         1.411803
 C         1.138712        -0.304078         0.772868
 C         0.139280        -0.112978        -0.293104
 O         0.795904        -1.438154         1.676936
 H         3.453877         2.003071         3.634223
 H         4.684263         0.925997         2.822161
 H         4.380616         2.490325         2.015148
 H         2.952985        -0.846836        -0.571875
 H         2.619669         2.038143        -0.462139
 H         0.889439         1.889242         1.905470
 H         0.456383         0.594044        -0.998069
 H         0.042312        -1.031104        -0.815569
 H        -0.874951         0.117454         0.132324
 H         1.349863        -1.467338         2.462817
