19
Iteration:  3943charge 0 multiplicity 1
 C         3.795653         1.546069         2.882767
 C         3.086379         1.001285         1.715577
 O         3.452492        -0.427550         1.374138
 C         2.606271        -0.244428         0.136243
 C         2.656638         1.310554         0.231095
 C         1.610443         1.166439         1.219781
 C         1.050578        -0.269147         0.752531
 C        -0.059236        -0.331462        -0.202258
 O         0.816013        -1.209791         1.753401
 H         4.011249         0.875709         3.799364
 H         4.869909         1.790754         2.680356
 H         3.239333         2.367422         3.424137
 H         2.828160        -0.963266        -0.659436
 H         2.799646         2.019271        -0.510232
 H         0.996407         1.950928         1.707691
 H        -0.035548         0.510930        -0.914990
 H        -0.183915        -1.276110        -0.738411
 H        -1.028599        -0.222599         0.192704
 H         1.665686        -1.266258         2.230222
