19
Iteration:   406
 C         3.833231         1.441319         2.750321
 C         3.053574         0.981278         1.623274
 O         3.357575        -0.480222         1.388493
 C         2.549907        -0.284833         0.158452
 C         2.748535         1.253371         0.225701
 C         1.604616         1.227455         1.211309
 C         1.064486        -0.171323         0.812741
 C        -0.111275        -0.226460        -0.121903
 O         0.896662        -1.203056         1.819747
 H         3.205374         1.055747         3.783088
 H         4.890318         1.155048         2.840373
 H         3.485406         2.448850         2.836118
 H         2.945260        -0.849809        -0.748926
 H         3.026677         1.860862        -0.657837
 H         1.169372         1.970322         1.739814
 H        -0.750134         0.613575         0.307391
 H         0.156131         0.228973        -1.158223
 H        -0.587684        -1.168777        -0.334159
 H         1.891598        -1.293306         2.226504
