19
Iteration:  1299charge 0 multiplicity 1
 C         3.748118         1.405759         2.851471
 C         3.122440         0.886953         1.600775
 O         3.408762        -0.519410         1.258187
 C         2.551154        -0.269351         0.110958
 C         2.684365         1.297960         0.154438
 C         1.633065         1.126259         1.345192
 C         1.160700        -0.208366         0.773347
 C        -0.034742        -0.227815        -0.177987
 O         0.781527        -1.017351         1.923292
 H         3.223092         1.098500         3.759177
 H         4.785370         1.303514         3.000463
 H         3.664513         2.548351         2.779063
 H         2.784512        -0.960519        -0.644883
 H         3.039487         1.977918        -0.655834
 H         1.036122         2.059300         1.732951
 H        -0.941956         0.170816         0.369989
 H         0.157112         0.160616        -1.117301
 H        -0.398203        -1.236622        -0.340276
 H         1.643268        -0.930802         2.395853
