19
Iteration:  2329charge 0 multiplicity 1
 C         4.004778         1.696960         2.634929
 C         3.156082         0.972918         1.647693
 O         3.378710        -0.468372         1.450520
 C         2.501671        -0.332565         0.294622
 C         2.576832         1.198248         0.286974
 C         1.552241         1.097901         1.401941
 C         1.070032        -0.260432         0.882479
 C         0.113581        -0.059120        -0.323959
 O         0.646850        -1.328364         1.684963
 H         4.249567         0.943574         3.497314
 H         4.926777         2.204524         2.239559
 H         3.359960         2.498009         3.042276
 H         2.852961        -1.013550        -0.526339
 H         2.861465         1.943944        -0.402706
 H         1.131936         1.890692         2.079512
 H         0.400459         0.776682        -0.861818
 H         0.064477        -0.944311        -0.989347
 H        -1.027564        -0.024337        -0.070311
 H         1.475923        -1.562203         2.017320
