19
Iteration:  2840
 C         3.715579         1.431597         2.844082
 C         3.058556         0.892195         1.609073
 O         3.368844        -0.422610         1.318140
 C         2.545441        -0.283233         0.129791
 C         2.711718         1.274574         0.188233
 C         1.602896         1.124683         1.320224
 C         1.134263        -0.146783         0.777185
 C        -0.013582        -0.306073        -0.189410
 O         0.887800        -1.033537         1.839028
 H         3.504903         0.573270         3.549909
 H         4.833114         1.382306         2.655289
 H         3.440698         2.383899         3.241390
 H         2.725659        -1.114509        -0.549916
 H         3.076299         2.211351        -0.306559
 H         1.054523         2.000820         1.902087
 H         0.043803         0.432248        -0.934233
 H        -0.111835        -1.322965        -0.563733
 H        -1.017493         0.041942         0.300592
 H         1.703873        -1.385661         2.120207
