19
Iteration:  4737
 C         3.903723         1.884887         2.484948
 C         3.130074         0.924620         1.679983
 O         3.411165        -0.514773         1.607167
 C         2.583519        -0.436455         0.355383
 C         2.655677         1.154799         0.371021
 C         1.618654         1.032423         1.476619
 C         1.107236        -0.274122         0.832795
 C         0.166088        -0.072511        -0.362200
 O         0.480870        -1.253299         1.553698
 H         3.296679         2.293230         3.351578
 H         4.763831         1.438130         2.942413
 H         4.325270         2.730855         1.894904
 H         2.970097        -1.076601        -0.446828
 H         2.959787         1.827120        -0.476039
 H         1.004963         1.818325         1.855749
 H         0.561942         0.599362        -1.211884
 H        -0.113628        -0.978236        -0.791419
 H        -0.709750         0.366625         0.041028
 H         1.095121        -1.566002         2.297779
