19
Iteration:  4315
 C         3.813259         1.946484         2.609896
 C         3.058376         0.912028         1.716541
 O         3.506423        -0.453606         1.412869
 C         2.630211        -0.331171         0.211709
 C         2.746513         1.168487         0.320445
 C         1.607632         1.054013         1.513199
 C         1.098571        -0.363683         0.790787
 C         0.018563        -0.098705        -0.157147
 O         0.592852        -1.417779         1.565498
 H         3.093706         2.367473         3.437679
 H         4.646211         1.616235         3.208463
 H         4.140805         2.886759         2.157831
 H         2.913770        -1.018283        -0.593063
 H         2.944329         2.154557        -0.157253
 H         0.965170         1.905799         1.832139
 H         0.044896         1.005434        -0.716261
 H         0.120829        -0.781942        -1.042449
 H        -1.001963        -0.102128         0.058700
 H         1.283044        -1.820691         2.179771
