19
Iteration:  1888
 C         3.971600         1.669440         2.591326
 C         3.043535         0.856630         1.779412
 O         3.365831        -0.503186         1.400875
 C         2.569059        -0.308620         0.207822
 C         2.651358         1.241396         0.404711
 C         1.580924         1.138909         1.472682
 C         1.112712        -0.222389         0.720805
 C        -0.005775        -0.144203        -0.272574
 O         0.720123        -1.217985         1.661854
 H         4.089575         1.138125         3.569262
 H         5.037590         1.664914         2.134525
 H         3.452553         2.593022         2.785619
 H         2.956341        -0.853300        -0.682183
 H         2.825565         2.059240        -0.328598
 H         0.865188         1.743175         2.095701
 H         0.145640         0.639629        -1.165637
 H        -0.120523        -1.277987        -0.618622
 H        -0.881705         0.188558         0.277985
 H         1.584367        -1.395812         2.164877
