19
Iteration:   600charge 0 multiplicity 1
 C         3.799310         1.433251         2.873950
 C         3.106412         0.944370         1.570441
 O         3.409873        -0.426265         1.345328
 C         2.547660        -0.336931         0.185930
 C         2.720500         1.243952         0.117326
 C         1.553637         1.210365         1.261021
 C         1.144558        -0.242643         0.794519
 C        -0.089024        -0.171507        -0.115726
 O         0.858191        -1.122129         1.825152
 H         3.181393         0.845116         3.662528
 H         4.888293         1.280789         2.890469
 H         3.591598         2.452224         3.026381
 H         2.712133        -1.153490        -0.602595
 H         2.837522         1.997464        -0.670381
 H         0.958936         1.907338         1.751751
 H        -0.918787         0.569245         0.296711
 H         0.300479         0.184554        -1.198615
 H        -0.595923        -1.122418        -0.227128
 H         1.780783        -1.412751         2.175917
