19
Iteration:  3483
 C         3.818936         1.666916         2.855488
 C         3.091525         0.973751         1.678827
 O         3.308383        -0.459683         1.360410
 C         2.596984        -0.340248         0.179648
 C         2.708981         1.284309         0.187806
 C         1.601412         1.039531         1.313535
 C         1.073294        -0.278567         0.779432
 C        -0.011967        -0.143278        -0.252003
 O         0.840834        -1.242556         1.800484
 H         3.979205         0.921266         3.572725
 H         4.831417         1.988138         2.744818
 H         3.214681         2.531288         3.171875
 H         2.917335        -0.958284        -0.713714
 H         2.825170         2.125332        -0.648086
 H         0.963623         1.794112         1.696967
 H         0.095752         0.752653        -0.710931
 H        -0.005053        -0.937023        -0.954914
 H        -1.026986        -0.115133         0.394229
 H         1.682525        -1.560718         2.045605
