19
Iteration:  3677
 C         3.805095         1.724470         2.600589
 C         3.029339         0.940440         1.723429
 O         3.387826        -0.474292         1.491365
 C         2.601594        -0.331024         0.209454
 C         2.619017         1.168806         0.229161
 C         1.599373         1.080542         1.360374
 C         1.122220        -0.247551         0.838137
 C         0.089298        -0.000660        -0.179103
 O         0.731473        -1.386211         1.648091
 H         4.001622         1.329418         3.605275
 H         4.773117         1.985975         2.172255
 H         3.408106         2.778018         2.844300
 H         2.800983        -0.974084        -0.673641
 H         3.044413         2.016465        -0.275892
 H         1.025530         1.907286         1.805764
 H         0.319965         0.817918        -0.758956
 H         0.115461        -0.809574        -0.900715
 H        -0.873802        -0.049861         0.316902
 H         1.494811        -1.527926         2.335186
