19
Iteration:  4443charge 0 multiplicity 1
 C         3.663120         1.577577         2.807489
 C         3.034559         0.949568         1.637485
 O         3.532586        -0.393843         1.371425
 C         2.554628        -0.349285         0.179542
 C         2.691864         1.187831         0.191379
 C         1.602390         1.087988         1.284646
 C         1.140901        -0.208572         0.799355
 C         0.054385        -0.217537        -0.233670
 O         0.753050        -1.136858         1.823357
 H         4.006965         0.697926         3.435996
 H         4.431579         2.315342         2.758760
 H         2.921057         2.072241         3.470473
 H         2.949309        -0.971748        -0.638238
 H         2.811519         1.889028        -0.647976
 H         0.972832         1.894803         1.770361
 H         0.202827         0.555579        -1.010616
 H        -0.065394        -1.160476        -0.700869
 H        -0.883076         0.002307         0.316896
 H         1.600931        -1.392791         2.217532
