19
Iteration:  4783charge 0 multiplicity 1
 C         3.920438         1.697912         2.641659
 C         3.011538         0.980488         1.712636
 O         3.318699        -0.473787         1.678922
 C         2.569391        -0.401702         0.338206
 C         2.794087         1.115013         0.210491
 C         1.555928         1.236078         1.206601
 C         1.095100        -0.238753         0.733847
 C         0.047499        -0.105989        -0.315744
 O         0.683804        -1.291535         1.715898
 H         3.926937         1.278047         3.657645
 H         4.920790         1.625463         2.285231
 H         3.778745         2.745653         2.631733
 H         2.797812        -1.191966        -0.375611
 H         3.322672         1.802344        -0.386036
 H         0.893127         2.129169         1.458017
 H         0.276416         0.650742        -1.094321
 H        -0.185956        -1.014279        -0.915556
 H        -0.876748         0.216514         0.121763
 H         1.584578        -1.659540         2.064925
