19
Iteration:  4853charge 0 multiplicity 1
 C         3.651422         1.432524         2.867078
 C         3.094192         0.922524         1.585234
 O         3.474537        -0.482463         1.448386
 C         2.631571        -0.435006         0.142714
 C         2.755389         1.185296         0.112380
 C         1.607256         1.164916         1.192710
 C         1.087823        -0.154395         0.829800
 C         0.140629        -0.327977        -0.319913
 O         0.644200        -0.805321         1.971346
 H         3.920706         0.539184         3.372949
 H         4.492611         2.137046         2.889030
 H         2.815575         1.980659         3.370377
 H         2.868208        -1.286804        -0.529278
 H         2.981711         1.922950        -0.726952
 H         1.001856         2.003358         1.436266
 H         0.362533         0.099043        -1.338300
 H        -0.048265        -1.496178        -0.532930
 H        -0.919569         0.103657         0.015406
 H         1.424188        -1.100498         2.498236
