19
Iteration:   387charge 0 multiplicity 1
 C         3.777813         1.496072         2.914132
 C         3.128241         0.947791         1.599820
 O         3.386450        -0.449748         1.284218
 C         2.525449        -0.325229         0.150465
 C         2.644223         1.249064         0.155118
 C         1.663725         1.156625         1.278060
 C         1.153551        -0.215638         0.817958
 C        -0.091657        -0.172187        -0.128445
 O         0.837869        -1.134629         1.807089
 H         3.257670         1.086394         3.608416
 H         4.805976         1.188369         2.794307
 H         3.826437         2.561132         3.177203
 H         2.682161        -1.156480        -0.602741
 H         2.960648         2.102376        -0.509252
 H         1.056975         1.941810         1.541335
 H        -0.820927         0.582648         0.038503
 H         0.070946        -0.245625        -1.219311
 H        -0.399371        -1.215090         0.074157
 H         1.772341        -1.389323         2.271756
