19
Iteration:  3965charge 0 multiplicity 1
 C         3.706030         1.533341         2.832534
 C         2.976931         0.961836         1.659764
 O         3.301059        -0.418798         1.387010
 C         2.608696        -0.296311         0.119760
 C         2.771279         1.264760         0.166812
 C         1.563757         1.195761         1.278312
 C         1.175877        -0.191655         0.734658
 C        -0.040551        -0.230065        -0.130444
 O         0.989937        -1.240859         1.781177
 H         3.351794         0.818022         3.695158
 H         4.812432         1.420881         2.908302
 H         3.161543         2.405650         3.260783
 H         2.811703        -1.043686        -0.659098
 H         3.184681         2.050909        -0.380534
 H         0.762670         1.929811         1.563406
 H        -0.273427         0.631975        -0.777639
 H        -0.145336        -1.144226        -0.732048
 H        -0.921833        -0.248387         0.441553
 H         1.878873        -1.375325         2.132160
