19
Iteration:  3258charge 0 multiplicity 1
 C         3.865383         1.585255         2.738064
 C         3.084368         0.920745         1.643928
 O         3.410366        -0.427475         1.334249
 C         2.606444        -0.289371         0.118870
 C         2.683657         1.315974         0.292102
 C         1.578749         1.071858         1.393896
 C         1.105119        -0.249173         0.836952
 C         0.110513        -0.193416        -0.265306
 O         0.641644        -1.221543         1.809960
 H         3.748322         0.977115         3.600243
 H         4.850574         1.942617         2.467807
 H         3.247092         2.443786         3.051096
 H         2.936394        -0.986706        -0.671030
 H         2.591791         2.165673        -0.380952
 H         1.080007         1.896065         1.872624
 H         0.437879         0.378790        -1.243775
 H        -0.170211        -1.244505        -0.473561
 H        -0.874359         0.233537         0.078264
 H         1.325389        -1.626461         2.374757
