19
Iteration:  1340charge 0 multiplicity 1
 C         3.984057         1.554717         2.700661
 C         3.088929         0.958587         1.663089
 O         3.338182        -0.475293         1.441554
 C         2.531594        -0.319542         0.237973
 C         2.650150         1.183192         0.198227
 C         1.620984         1.213198         1.329916
 C         1.077081        -0.227460         0.843287
 C        -0.057855        -0.107943        -0.238162
 O         0.788136        -1.268055         1.738503
 H         3.945943         0.924476         3.613761
 H         4.943146         1.736763         2.301595
 H         3.390382         2.500634         2.966449
 H         2.634291        -1.003710        -0.574487
 H         3.156142         1.932360        -0.424289
 H         0.950514         1.987444         1.679413
 H        -0.647446         0.781925         0.165242
 H         0.369445         0.273436        -1.293045
 H        -0.673114        -1.103217        -0.402975
 H         1.583866        -1.459577         2.354971
