19
Iteration:  2934
 C         3.950731         1.711595         2.609712
 C         3.074344         0.898908         1.740295
 O         3.386482        -0.449665         1.408693
 C         2.522263        -0.303245         0.275325
 C         2.652674         1.229330         0.319082
 C         1.533797         1.069726         1.475100
 C         1.052383        -0.243126         0.846485
 C         0.046166        -0.044632        -0.331891
 O         0.767015        -1.405015         1.658814
 H         3.950167         1.555849         3.712090
 H         4.980629         1.638940         2.291186
 H         3.802728         2.811141         2.457742
 H         2.653314        -0.914579        -0.644578
 H         3.001834         1.918451        -0.520236
 H         0.871984         1.778247         2.060096
 H         0.257399         0.880516        -0.935541
 H        -0.198227        -1.000561        -0.875528
 H        -0.972616         0.264370         0.007196
 H         1.620267        -1.354941         2.248085
