19
Iteration:  2001
 C         3.808946         1.615783         2.775395
 C         3.084515         0.915530         1.704990
 O         3.352909        -0.549453         1.302859
 C         2.545566        -0.277428         0.167982
 C         2.713684         1.260374         0.267691
 C         1.604227         1.137322         1.415040
 C         1.104527        -0.195490         0.774548
 C        -0.030000        -0.134447        -0.200180
 O         0.851989        -1.237647         1.755144
 H         3.519995         1.330188         3.814702
 H         4.897508         1.496865         2.750696
 H         3.611807         2.722996         2.498478
 H         2.617809        -0.949556        -0.649328
 H         2.995412         1.954418        -0.490532
 H         1.046715         1.917074         1.780446
 H        -0.215416         0.784790        -0.848196
 H         0.015162        -1.069891        -0.753926
 H        -1.052244        -0.154910         0.401870
 H         1.725503        -1.564073         1.788453
