19
Iteration:   584charge 0 multiplicity 1
 C         3.846031         1.523173         2.779497
 C         3.051140         0.969746         1.628895
 O         3.365257        -0.470422         1.392599
 C         2.542756        -0.364481         0.184397
 C         2.656700         1.241910         0.256608
 C         1.606277         1.147195         1.207274
 C         1.106017        -0.182438         0.825562
 C        -0.062587        -0.115332        -0.172963
 O         0.872935        -1.224346         1.775179
 H         3.630439         0.973638         3.654321
 H         4.910045         1.223423         2.545038
 H         3.813434         2.666875         2.951046
 H         2.788194        -1.029306        -0.615418
 H         3.179755         1.885133        -0.447355
 H         0.915956         2.055167         1.592921
 H        -0.878849         0.392769         0.268881
 H         0.185637         0.340981        -1.049637
 H        -0.579150        -1.121677        -0.226561
 H         1.682707        -1.170826         2.214834
