19
Iteration:  4906charge 0 multiplicity 1
 C         3.834730         1.724545         2.684307
 C         3.016052         0.917568         1.681145
 O         3.246152        -0.558332         1.615071
 C         2.590501        -0.419125         0.328526
 C         2.860978         1.117083         0.263800
 C         1.592242         1.188013         1.237425
 C         1.086873        -0.190296         0.696151
 C         0.031420        -0.173219        -0.318932
 O         0.759746        -1.138389         1.706760
 H         4.084888         1.245823         3.573825
 H         4.753183         1.994559         2.159476
 H         3.315883         2.669505         2.860796
 H         2.807652        -1.217371        -0.402797
 H         3.458871         1.790446        -0.394528
 H         1.174125         2.081361         1.630451
 H         0.310235         0.253957        -1.180837
 H        -0.502891        -1.135050        -0.557127
 H        -0.809435         0.363898         0.175396
 H         1.567748        -1.142127         2.208777
