19
Iteration:  3921
 C         3.793973         1.590152         2.709850
 C         3.075271         1.001042         1.649913
 O         3.464032        -0.419976         1.327975
 C         2.572997        -0.295335         0.208084
 C         2.629593         1.256574         0.357080
 C         1.519010         1.064556         1.474941
 C         1.140831        -0.217756         0.783295
 C         0.050946        -0.273225        -0.325362
 O         0.737665        -1.176166         1.723839
 H         4.208726         0.962142         3.543941
 H         4.783592         1.973994         2.312136
 H         3.339468         2.424445         3.281186
 H         2.908449        -0.940512        -0.615944
 H         2.907833         2.030758        -0.275290
 H         0.937540         1.829638         1.960904
 H         0.172644         0.317069        -1.229631
 H        -0.014090        -1.352130        -0.512573
 H        -0.908448        -0.086843         0.105661
 H         1.459348        -1.390597         2.388502
