19
Iteration:  2878charge 0 multiplicity 1
 C         3.725445         1.469534         2.924067
 C         3.120413         0.933474         1.614233
 O         3.461335        -0.389702         1.278535
 C         2.549128        -0.388152         0.105051
 C         2.780084         1.305224         0.231347
 C         1.625344         1.176501         1.216573
 C         1.051056        -0.227599         0.789715
 C        -0.158652        -0.246268        -0.151057
 O         0.867226        -1.150081         1.813109
 H         3.751764         0.681457         3.693549
 H         4.795524         1.654299         2.849304
 H         3.131214         2.288226         3.414186
 H         2.718901        -1.107193        -0.742722
 H         3.147905         2.178016        -0.327489
 H         1.120714         1.943779         1.692339
 H         0.112428         0.341249        -1.101983
 H        -0.403456        -1.232731        -0.601472
 H        -0.929577         0.192541         0.395059
 H         1.405999        -0.835438         2.579611
