19
Iteration:   102charge 0 multiplicity 1
 C         3.898832         1.703043         2.546735
 C         3.124130         0.883489         1.568363
 O         3.463060        -0.527231         1.385275
 C         2.552972        -0.402233         0.268138
 C         2.663209         1.122004         0.235474
 C         1.699846         1.077490         1.476193
 C         1.117452        -0.206690         0.865948
 C         0.071805        -0.046342        -0.282880
 O         0.514505        -1.142012         1.846462
 H         3.752473         1.346206         3.516965
 H         4.990442         1.550481         2.269789
 H         3.548836         2.699680         2.544734
 H         2.816341        -1.073109        -0.552686
 H         2.578344         1.820127        -0.602212
 H         1.085829         1.866960         1.971542
 H         0.414261         0.624547        -1.085819
 H        -0.253342        -1.029563        -0.701985
 H        -0.783569         0.272985         0.188531
 H         1.084687        -1.206615         2.696905
