19
Iteration:  2532charge 0 multiplicity 1
 C         4.045081         1.774917         2.506326
 C         3.009867         0.953139         1.748350
 O         3.410647        -0.413674         1.486310
 C         2.602508        -0.306271         0.311981
 C         2.595353         1.261487         0.409260
 C         1.524376         0.978261         1.523952
 C         1.114342        -0.275782         0.837850
 C         0.126354        -0.015551        -0.332549
 O         0.589653        -1.430920         1.548848
 H         4.567146         1.082592         3.163786
 H         4.813766         1.916961         1.738874
 H         3.744737         2.799683         2.895279
 H         2.815046        -1.157762        -0.394896
 H         2.757596         2.146125        -0.259321
 H         0.743673         1.660691         1.992733
 H         0.275635         0.847740        -0.953365
 H         0.104882        -0.960732        -0.942470
 H        -0.949653         0.071839         0.013271
 H         1.315703        -1.605193         2.213324
