19
Iteration:  2748
 C         4.037754         1.896407         2.611155
 C         3.159662         0.946809         1.725889
 O         3.456683        -0.427011         1.422230
 C         2.533319        -0.410562         0.281934
 C         2.609924         1.164644         0.343197
 C         1.554657         1.081959         1.464279
 C         1.134372        -0.331153         0.898883
 C         0.073843         0.098456        -0.297601
 O         0.508363        -1.544611         1.543020
 H         4.031807         1.653356         3.683784
 H         5.043546         1.923298         2.190191
 H         3.754951         2.970967         2.308390
 H         2.803306        -1.174687        -0.489824
 H         2.620110         1.989335        -0.286732
 H         0.982014         1.784169         1.885984
 H         0.566232         0.990781        -0.834849
 H        -0.294240        -0.864836        -0.764341
 H        -0.755116         0.470230         0.334528
 H         0.974900        -1.834257         2.280871
