19
Iteration:  2695
 C         3.935261         1.700499         2.711152
 C         3.055867         0.921330         1.756682
 O         3.405766        -0.520445         1.341282
 C         2.546852        -0.337284         0.226620
 C         2.659063         1.295088         0.362938
 C         1.584959         1.098586         1.350564
 C         1.051109        -0.326136         0.806516
 C        -0.012251        -0.107638        -0.315716
 O         0.721328        -1.249092         1.747772
 H         4.356091         1.264302         3.635070
 H         4.864034         1.766832         2.153783
 H         3.397922         2.673103         2.903181
 H         3.051773        -0.794058        -0.674850
 H         2.850460         2.110345        -0.288822
 H         1.143540         1.934543         1.713549
 H         0.400988         0.624393        -0.989285
 H        -0.005070        -1.115408        -0.786025
 H        -1.008023         0.252982         0.051076
 H         1.471885        -1.608026         2.162082
