19
Iteration:  1054charge 0 multiplicity 1
 C         3.761418         1.560740         2.803467
 C         3.125393         0.835915         1.624468
 O         3.393639        -0.620408         1.360113
 C         2.547958        -0.283940         0.175171
 C         2.753572         1.239432         0.284236
 C         1.579955         1.185304         1.141019
 C         1.095113        -0.153273         0.739582
 C        -0.091568        -0.224127        -0.157156
 O         0.849615        -1.040418         1.846742
 H         3.476226         1.149547         3.820707
 H         4.938664         1.365531         2.812141
 H         3.535690         2.619121         2.796110
 H         2.679846        -0.968166        -0.707411
 H         3.005793         2.076086        -0.284893
 H         1.155975         2.020554         1.810822
 H        -1.014182        -0.443773         0.323169
 H        -0.312817         0.791871        -0.621056
 H         0.066615        -1.116627        -0.940567
 H         1.732060        -1.105081         2.432267
