19
Iteration:  3292charge 0 multiplicity 1
 C         3.770118         1.471821         2.890759
 C         3.055025         0.935036         1.662591
 O         3.468181        -0.437248         1.318402
 C         2.584123        -0.299221         0.129290
 C         2.741280         1.236624         0.211324
 C         1.506263         1.184726         1.292156
 C         1.089690        -0.191553         0.801589
 C        -0.067661        -0.267452        -0.261353
 O         0.854601        -1.100285         1.841048
 H         3.569758         0.718959         3.671348
 H         4.839886         1.473500         2.965799
 H         3.351318         2.408487         3.161508
 H         2.861334        -0.987390        -0.665959
 H         2.745841         2.020738        -0.653614
 H         1.039098         1.996547         1.754391
 H        -0.136466         0.519741        -1.205775
 H         0.092505        -1.350644        -0.632708
 H        -0.997060        -0.206162         0.270069
 H         1.743512        -1.088506         2.151585
