19
Iteration:  4781
 C         3.915858         1.700278         2.632230
 C         3.030792         0.996985         1.713923
 O         3.318077        -0.460241         1.667786
 C         2.552306        -0.406804         0.356748
 C         2.802278         1.097565         0.222801
 C         1.539383         1.225979         1.206145
 C         1.089814        -0.251410         0.735406
 C         0.053810        -0.098795        -0.309819
 O         0.685040        -1.308151         1.706634
 H         3.923982         1.279593         3.709438
 H         4.926416         1.581623         2.258072
 H         3.853224         2.811369         2.552618
 H         2.777236        -1.202096        -0.348978
 H         3.328302         1.872367        -0.338340
 H         0.864491         2.071795         1.402830
 H         0.286815         0.703906        -1.096421
 H        -0.145303        -0.900190        -0.898835
 H        -0.814893         0.288476         0.080883
 H         1.544433        -1.646617         2.095991
