19
Iteration:  4530
 C         4.064323         1.845720         2.631857
 C         3.059084         0.914131         1.803147
 O         3.384119        -0.437325         1.585856
 C         2.567050        -0.303828         0.233551
 C         2.669982         1.211127         0.306743
 C         1.508694         1.062719         1.448318
 C         1.067853        -0.226279         0.791002
 C         0.011632        -0.199498        -0.417184
 O         0.679266        -1.378594         1.606831
 H         5.011612         1.290203         2.690556
 H         4.221551         2.684624         2.035960
 H         3.645137         2.039689         3.588720
 H         3.015733        -0.815339        -0.635958
 H         2.936020         1.948909        -0.394615
 H         0.730574         1.846411         1.722236
 H         0.322684         0.588586        -1.225674
 H        -0.192858        -1.158357        -0.807986
 H        -0.958161         0.110242         0.037930
 H         1.280213        -1.400480         2.430915
