19
Iteration:  2096
 C         3.915460         1.830897         2.626088
 C         3.156478         0.885521         1.689937
 O         3.485472        -0.500736         1.363764
 C         2.494798        -0.358990         0.241712
 C         2.578918         1.256794         0.359003
 C         1.616077         0.975961         1.507540
 C         1.069643        -0.296995         0.817104
 C         0.137732         0.001379        -0.256680
 O         0.560838        -1.361583         1.619908
 H         4.246653         1.527739         3.592408
 H         4.821247         2.229878         2.080197
 H         3.258230         2.758314         2.784703
 H         2.786493        -1.065780        -0.500360
 H         2.773045         2.055173        -0.344789
 H         1.136581         1.704551         2.164146
 H         0.769537         0.621929        -1.003795
 H        -0.153198        -0.950364        -0.657344
 H        -0.766667         0.495637        -0.067750
 H         1.167472        -1.392545         2.480937
