19
Iteration:  1832
 C         3.940169         1.808011         2.513504
 C         3.139742         0.937497         1.644421
 O         3.466854        -0.440485         1.473895
 C         2.513037        -0.470606         0.346579
 C         2.518216         1.151247         0.262921
 C         1.624162         1.017045         1.638038
 C         1.139747        -0.226080         0.925865
 C         0.127068         0.108672        -0.201075
 O         0.561910        -1.383410         1.480372
 H         3.739235         1.432319         3.572184
 H         5.032321         1.539133         2.284258
 H         3.986337         2.832836         2.296138
 H         2.852171        -1.195947        -0.497510
 H         2.385743         1.955281        -0.391004
 H         0.862322         1.646573         1.856820
 H         0.174542         1.223013        -0.461839
 H         0.413461        -0.515911        -1.261040
 H        -0.931908        -0.091003        -0.115260
 H         1.410074        -1.823699         1.977986
