19
Iteration:  1972charge 0 multiplicity 1
 C         3.651035         1.446878         2.888194
 C         3.113668         0.842163         1.644274
 O         3.448372        -0.515257         1.257661
 C         2.610650        -0.241960         0.080755
 C         2.762570         1.330492         0.217458
 C         1.629488         1.145097         1.244682
 C         1.116016        -0.204523         0.726519
 C        -0.151752        -0.199559        -0.090512
 O         0.879083        -1.111155         1.846405
 H         3.156045         1.045733         3.806375
 H         4.694861         1.470529         3.093906
 H         3.388634         2.457987         2.756768
 H         2.766539        -0.940354        -0.837712
 H         3.155959         2.085349        -0.540191
 H         1.033099         1.899525         1.797955
 H        -0.230647         0.518242        -0.802656
 H        -0.255997        -1.189494        -0.530656
 H        -0.933090        -0.096476         0.670874
 H         1.630526        -0.914188         2.459690
