19
Iteration:  2351
 C         3.882262         1.571924         2.766634
 C         3.051259         0.925293         1.705290
 O         3.460276        -0.421971         1.306811
 C         2.528320        -0.328397         0.180197
 C         2.651339         1.251327         0.198578
 C         1.581618         1.147575         1.412123
 C         1.134288        -0.199547         0.843448
 C         0.113537        -0.191414        -0.274313
 O         0.629519        -1.239354         1.806098
 H         3.881960         0.813543         3.666017
 H         4.955573         1.642480         2.413815
 H         3.583681         2.588488         3.038606
 H         2.833845        -0.988148        -0.678753
 H         2.617643         2.112071        -0.471471
 H         0.923966         2.015190         1.641233
 H         0.350338         0.633477        -0.875597
 H        -0.007030        -1.111561        -0.878605
 H        -0.989090        -0.104026         0.096295
 H         1.513848        -1.403650         2.345541
