19
Iteration:  3626charge 0 multiplicity 1
 C         3.900587         1.774977         2.542285
 C         3.041599         0.926434         1.739289
 O         3.559027        -0.415472         1.448095
 C         2.583340        -0.358690         0.285042
 C         2.592697         1.214743         0.335967
 C         1.530925         1.059671         1.533095
 C         1.124634        -0.217301         0.851263
 C         0.059529        -0.095396        -0.274709
 O         0.613088        -1.365144         1.575765
 H         3.543525         1.936032         3.496219
 H         4.895250         1.355243         2.721341
 H         4.085144         2.707721         2.050892
 H         2.816492        -0.887154        -0.644738
 H         2.814048         1.833422        -0.470388
 H         0.912616         1.867594         2.073090
 H         0.232269         0.740991        -0.912141
 H         0.082906        -0.913490        -0.988022
 H        -1.008271        -0.120340         0.301457
 H         1.286634        -1.950027         1.934681
