19
Iteration:   731
 C         4.031158         1.832156         2.488092
 C         3.148615         0.943978         1.712741
 O         3.417616        -0.511905         1.488256
 C         2.547615        -0.335471         0.248523
 C         2.619140         1.182679         0.342499
 C         1.590651         1.025558         1.555993
 C         1.086163        -0.305603         0.829380
 C         0.067664        -0.017763        -0.275989
 O         0.549761        -1.357061         1.616164
 H         4.064118         1.617612         3.609761
 H         5.064820         1.765318         2.201964
 H         3.591824         2.786180         2.357428
 H         2.839154        -1.268302        -0.379557
 H         2.670353         2.149410        -0.203854
 H         0.905781         1.787202         1.705837
 H        -0.760366         0.560339         0.186180
 H         0.403168         0.853948        -0.951082
 H        -0.169525        -0.729014        -0.937935
 H         1.230445        -1.801668         2.017504
