19
Iteration:  4652charge 0 multiplicity 1
 C         3.807598         1.542873         2.883942
 C         3.120318         0.957274         1.694572
 O         3.325936        -0.436304         1.495450
 C         2.585704        -0.355290         0.218208
 C         2.766601         1.205999         0.240204
 C         1.507627         1.263004         1.071143
 C         1.041825        -0.177755         0.811126
 C        -0.022804        -0.284735        -0.289583
 O         0.853763        -1.184540         1.794967
 H         4.018036         2.594377         2.618153
 H         3.182070         1.465625         3.724299
 H         4.716402         1.053690         2.944084
 H         3.046693        -0.966640        -0.573812
 H         3.310792         1.818104        -0.564368
 H         0.795334         2.010971         1.330755
 H         0.235592         0.577553        -1.055877
 H        -0.218116        -1.294769        -0.736039
 H        -0.976497        -0.010807         0.129843
 H         1.745014        -1.390252         2.073554
