19
Iteration:  4888charge 0 multiplicity 1
 C         3.773216         1.606535         2.787902
 C         3.041986         0.913027         1.654872
 O         3.358578        -0.509004         1.565938
 C         2.576410        -0.409729         0.195103
 C         2.807171         1.111178         0.196714
 C         1.644866         1.253034         1.116233
 C         1.091743        -0.150828         0.841961
 C         0.022857        -0.214813        -0.335022
 O         0.729822        -1.074927         1.837081
 H         3.949318         0.763412         3.579887
 H         4.752600         2.046567         2.569962
 H         3.053227         2.241895         3.396145
 H         2.911482        -1.214511        -0.438122
 H         3.097210         1.736067        -0.579522
 H         0.968214         2.100817         1.233179
 H         0.522638         0.156988        -1.418509
 H        -0.305843        -1.291760        -0.379729
 H        -0.962952         0.350467        -0.178900
 H         1.514765        -1.106045         2.366580
