19
Iteration:    65
 C         4.122685         1.770564         2.500834
 C         3.128924         0.977802         1.738585
 O         3.423393        -0.482432         1.426897
 C         2.484943        -0.469169         0.348630
 C         2.623030         1.024251         0.205202
 C         1.642251         1.140305         1.417064
 C         1.133154        -0.220063         0.918122
 C         0.069569        -0.012259        -0.290438
 O         0.458791        -1.247911         1.738953
 H         4.023529         1.387931         3.575596
 H         5.102769         1.577463         2.163957
 H         4.061904         2.897540         2.430189
 H         2.579318        -1.142444        -0.500102
 H         2.560381         1.700276        -0.625622
 H         1.045341         2.009369         1.631751
 H        -0.203477         0.991359        -0.531119
 H         0.466043        -0.470026        -1.122599
 H        -0.925718        -0.452040         0.021337
 H         1.128916        -1.619155         2.341307
