19
Iteration:  3847
 C         3.940816         1.835270         2.544569
 C         3.073844         0.982072         1.736609
 O         3.390980        -0.450637         1.492562
 C         2.639434        -0.337432         0.311089
 C         2.641512         1.229652         0.345191
 C         1.570257         1.087434         1.437286
 C         1.154630        -0.288245         0.728702
 C         0.009942        -0.072040        -0.156330
 O         0.643417        -1.486698         1.519016
 H         3.628318         1.774895         3.651906
 H         4.991817         1.652194         2.564040
 H         3.703016         2.878493         2.505153
 H         3.010007        -0.988458        -0.477985
 H         2.871843         1.905221        -0.411106
 H         0.892463         1.880241         1.677617
 H         0.112912         0.894351        -0.866352
 H        -0.270907        -1.013395        -0.746288
 H        -0.752803         0.262387         0.500652
 H         1.311050        -1.764437         2.135641
