19
Iteration:  3823
 C         3.843091         1.833284         2.715605
 C         3.092898         0.963315         1.745222
 O         3.390633        -0.476199         1.496703
 C         2.583035        -0.374036         0.151229
 C         2.718383         1.205100         0.294696
 C         1.640843         1.070641         1.343834
 C         1.076423        -0.254817         0.742266
 C        -0.121052        -0.063540        -0.170535
 O         0.780671        -1.430344         1.612637
 H         3.644311         2.032510         3.813228
 H         4.924301         1.543201         2.717626
 H         3.801291         2.890093         2.468356
 H         2.812066        -1.039387        -0.714736
 H         2.987164         1.928914        -0.537475
 H         1.006598         1.795949         1.747481
 H         0.002320         0.911617        -0.694756
 H        -0.089859        -0.913718        -0.866406
 H        -1.066535         0.059863         0.365095
 H         1.648127        -1.539944         2.170184
