19
Iteration:    40charge 0 multiplicity 1
 C         4.099609         1.692273         2.359008
 C         3.200350         0.862104         1.627282
 O         3.288168        -0.513776         1.593587
 C         2.509426        -0.420814         0.362759
 C         2.695719         1.166924         0.332543
 C         1.553326         1.140641         1.426986
 C         1.059978        -0.223603         0.773001
 C         0.012954        -0.056143        -0.275503
 O         0.600826        -1.204008         1.750991
 H         4.092012         1.392131         3.475208
 H         5.130491         1.662126         1.974302
 H         3.854702         2.809441         2.165213
 H         2.886872        -1.153352        -0.448274
 H         3.224310         1.877826        -0.308531
 H         0.909463         2.097866         1.687409
 H        -0.489349         0.913812        -0.115819
 H         0.395720        -0.135847        -1.331038
 H        -0.925705        -0.767691        -0.019343
 H         1.524581        -1.419011         2.232175
