19
Iteration:  2244charge 0 multiplicity 1
 C         3.868093         1.636392         2.720934
 C         3.149478         0.932344         1.573078
 O         3.442759        -0.509491         1.419516
 C         2.532965        -0.315197         0.252984
 C         2.564619         1.197513         0.232675
 C         1.580942         1.161711         1.413080
 C         1.109274        -0.237137         0.828170
 C         0.074466        -0.064610        -0.232320
 O         0.717501        -1.290585         1.710095
 H         3.396616         1.381059         3.729484
 H         4.981746         1.509554         2.665067
 H         3.613201         2.673078         2.706291
 H         2.548655        -0.981093        -0.640190
 H         2.861886         1.870047        -0.563590
 H         1.018467         2.029631         1.856743
 H         0.515862         0.547932        -1.056338
 H        -0.113350        -1.071110        -0.706071
 H        -0.900376         0.443079         0.125614
 H         1.371664        -1.601677         2.431563
