19
Iteration:  3482
 C         3.826923         1.669683         2.858073
 C         3.089928         0.973349         1.673651
 O         3.311766        -0.456779         1.360312
 C         2.604097        -0.338128         0.191386
 C         2.704636         1.285099         0.197871
 C         1.609480         1.039770         1.314811
 C         1.069660        -0.277440         0.770169
 C        -0.021634        -0.146439        -0.255652
 O         0.835242        -1.248682         1.798248
 H         4.026757         0.945267         3.554535
 H         4.815690         1.987603         2.725582
 H         3.221184         2.529112         3.161186
 H         2.914577        -0.982090        -0.697013
 H         2.788734         2.092757        -0.642584
 H         0.957946         1.789920         1.716547
 H         0.100451         0.795424        -0.721555
 H        -0.002208        -0.961034        -0.962019
 H        -1.037261        -0.093363         0.354214
 H         1.680083        -1.552290         2.056459
