19
Iteration:    22charge 0 multiplicity 1
 C         4.103048         1.734377         2.464139
 C         3.038841         0.878446         1.789156
 O         3.251579        -0.619425         1.537291
 C         2.515920        -0.413143         0.239921
 C         2.733759         1.094563         0.255583
 C         1.620137         1.188348         1.299274
 C         1.036596        -0.177549         0.842206
 C        -0.037136        -0.046671        -0.257121
 O         0.748160        -1.178189         1.767949
 H         4.320014         1.560122         3.538844
 H         5.021041         1.560496         1.959737
 H         3.877794         2.811713         2.261109
 H         2.706338        -1.199533        -0.497407
 H         3.040200         1.839833        -0.461568
 H         1.062067         2.040951         1.692883
 H        -0.769953         0.713111        -0.073298
 H         0.398959         0.072745        -1.198586
 H        -0.633147        -0.969079        -0.269277
 H         1.254144        -1.041606         2.660597
