19
Iteration:  2552
 C         4.019763         1.711603         2.611019
 C         3.028942         0.967851         1.717783
 O         3.441701        -0.441616         1.503332
 C         2.589809        -0.333595         0.259010
 C         2.499770         1.222848         0.330334
 C         1.507897         1.091179         1.470912
 C         1.170530        -0.293831         0.806414
 C         0.037202        -0.085792        -0.245026
 O         0.680313        -1.335313         1.551740
 H         4.129928         1.157151         3.565384
 H         5.085731         1.702316         2.211232
 H         3.444617         2.697273         2.891626
 H         2.978034        -1.001053        -0.519044
 H         2.745038         1.939636        -0.463957
 H         0.940366         1.995463         1.934176
 H         0.299412         0.778855        -0.972125
 H        -0.204443        -0.966489        -0.898388
 H        -0.786266         0.337108         0.293261
 H         1.577954        -1.840715         1.761050
