19
Iteration:  1331
 C         3.902400         1.470869         2.744893
 C         3.065335         0.982070         1.644016
 O         3.426406        -0.481433         1.390622
 C         2.550277        -0.301614         0.239845
 C         2.691369         1.229561         0.182069
 C         1.588548         1.208366         1.300234
 C         1.066975        -0.229751         0.821646
 C        -0.037766        -0.108272        -0.218212
 O         0.762996        -1.234379         1.816847
 H         3.845356         0.809229         3.621604
 H         4.916696         1.544463         2.455460
 H         3.535937         2.542080         3.014830
 H         2.697866        -1.059239        -0.480959
 H         2.994257         1.855003        -0.702881
 H         0.933248         2.167597         1.541165
 H        -0.837862         0.713843         0.098556
 H         0.220504         0.159127        -1.259292
 H        -0.556803        -1.109552        -0.208911
 H         1.710557        -1.447169         2.116257
