19
Iteration:  1085charge 0 multiplicity 1
 C         3.851297         1.534563         2.744733
 C         3.046050         0.931764         1.673347
 O         3.262711        -0.496549         1.395690
 C         2.556537        -0.323445         0.185945
 C         2.783633         1.186087         0.226690
 C         1.559774         1.175299         1.259215
 C         1.106783        -0.132647         0.774949
 C        -0.090207        -0.197054        -0.177171
 O         0.891575        -1.140857         1.807820
 H         3.442159         1.201113         3.681855
 H         4.927507         1.270939         2.505823
 H         3.847298         2.606432         2.838184
 H         2.755408        -1.075704        -0.543771
 H         3.102731         2.067298        -0.227313
 H         1.221071         2.091098         1.832636
 H        -0.989984        -0.221120         0.357170
 H        -0.094464         0.564718        -0.974944
 H         0.164005        -1.095950        -0.862446
 H         1.799587        -1.564496         1.970608
