19
Iteration:  1580
 C         3.960543         1.715724         2.623789
 C         3.109287         0.837721         1.706466
 O         3.449875        -0.498757         1.332744
 C         2.465063        -0.330820         0.210114
 C         2.620458         1.270853         0.355301
 C         1.588144         1.063227         1.496088
 C         1.106258        -0.194749         0.840887
 C         0.114393        -0.039119        -0.297768
 O         0.605329        -1.316098         1.732541
 H         4.060786         1.320583         3.677145
 H         4.951677         1.910960         2.190756
 H         3.477493         2.787431         2.646479
 H         2.736203        -0.866858        -0.648286
 H         2.722285         1.994122        -0.401588
 H         1.051272         1.823396         2.149365
 H        -0.463232         0.815836        -0.450340
 H         0.702823        -0.352382        -1.274705
 H        -0.657114        -0.882372        -0.200451
 H         1.375160        -1.656461         2.138241
