19
Iteration:  3652charge 0 multiplicity 1
 C         3.931179         1.878213         2.611385
 C         3.183290         0.995775         1.717287
 O         3.446776        -0.435131         1.461781
 C         2.575716        -0.422705         0.287445
 C         2.630973         1.194907         0.353252
 C         1.609214         0.979719         1.447574
 C         1.099121        -0.318471         0.787474
 C        -0.041617        -0.055137        -0.255191
 O         0.627337        -1.400298         1.561815
 H         3.655580         1.760969         3.742172
 H         5.038810         1.850188         2.561300
 H         3.747767         2.962272         2.421602
 H         2.831469        -1.011650        -0.602544
 H         2.682804         2.052581        -0.398495
 H         1.077230         1.796662         1.849017
 H         0.216082         0.998399        -0.712153
 H        -0.136713        -0.628248        -1.225541
 H        -0.901798        -0.141055         0.312736
 H         1.163157        -1.578775         2.369269
