19
Iteration:  1523charge 0 multiplicity 1
 C         3.847857         1.513713         2.822437
 C         3.113894         0.958204         1.588684
 O         3.386250        -0.506067         1.369146
 C         2.560888        -0.375219         0.191595
 C         2.730423         1.216289         0.196317
 C         1.595739         1.214189         1.250579
 C         1.108825        -0.178616         0.753549
 C        -0.070540        -0.169293        -0.103625
 O         0.754076        -1.180598         1.780150
 H         3.577445         0.813076         3.656424
 H         4.949067         1.683026         2.851743
 H         3.324464         2.470366         3.195976
 H         2.972824        -0.964218        -0.662525
 H         2.971024         2.041940        -0.549380
 H         1.088757         2.175827         1.587631
 H        -0.837602         0.203689         0.534138
 H         0.003645         0.700093        -0.904741
 H        -0.243723        -1.186628        -0.588639
 H         1.718514        -1.366948         2.176793
