19
Iteration:   901
 C         3.866020         1.652108         2.737185
 C         3.130300         1.027388         1.661683
 O         3.416349        -0.506113         1.337642
 C         2.527766        -0.406954         0.217139
 C         2.639744         1.138714         0.209087
 C         1.624461         1.065580         1.382957
 C         1.119935        -0.258140         0.838900
 C         0.086579         0.003009        -0.167443
 O         0.652344        -1.228790         1.742534
 H         3.478996         1.295005         3.672155
 H         4.962833         1.566633         2.435466
 H         3.763282         2.751756         2.700570
 H         2.661776        -1.107725        -0.589451
 H         2.575623         1.764197        -0.722109
 H         0.961505         1.749139         1.760940
 H        -0.824566         0.249473         0.286817
 H         0.429868         0.701847        -0.899410
 H        -0.038602        -0.949652        -0.870380
 H         1.407171        -1.190433         2.475401
