19
Iteration:  2224charge 0 multiplicity 1
 C         3.783889         1.532316         2.788729
 C         3.066450         0.917874         1.641307
 O         3.389453        -0.429972         1.261415
 C         2.550562        -0.362759         0.122947
 C         2.741355         1.316654         0.282933
 C         1.632293         1.122433         1.315840
 C         1.044447        -0.235276         0.844631
 C         0.062940        -0.174995        -0.229262
 O         0.743735        -1.200311         1.869943
 H         3.259336         1.415094         3.747675
 H         4.813183         1.089759         2.785483
 H         3.865601         2.590565         2.666946
 H         2.879171        -1.156078        -0.574504
 H         2.820017         2.183363        -0.438308
 H         1.009913         1.856782         1.833207
 H         0.360793         0.538792        -1.091766
 H        -0.081051        -1.161676        -0.706351
 H        -0.849822         0.288743         0.118354
 H         1.621927        -1.219142         2.436013
