19
Iteration:  2376charge 0 multiplicity 1
 C         3.751812         1.495483         2.827814
 C         3.146184         0.850139         1.637546
 O         3.466835        -0.480509         1.327248
 C         2.655454        -0.303788         0.126343
 C         2.613539         1.371365         0.267452
 C         1.547856         1.112288         1.327978
 C         1.123165        -0.161465         0.764628
 C        -0.089772        -0.268267        -0.222001
 O         0.793607        -1.099592         1.832114
 H         3.368121         0.978692         3.735211
 H         4.872473         1.227411         2.794453
 H         3.709701         2.590828         2.866293
 H         3.023662        -0.785470        -0.763584
 H         2.948209         2.023755        -0.626879
 H         0.957651         1.752394         1.888355
 H         0.127674         0.427197        -1.150115
 H        -0.198612        -1.300727        -0.563981
 H        -1.063210        -0.114998         0.149494
 H         1.526620        -0.925256         2.448239
