19
Iteration:  1080charge 0 multiplicity 1
 C         3.830606         1.513477         2.733621
 C         3.034823         0.901047         1.659212
 O         3.224764        -0.489473         1.398979
 C         2.591129        -0.294804         0.135232
 C         2.791617         1.156139         0.220852
 C         1.590158         1.200912         1.331746
 C         1.095133        -0.147850         0.736253
 C        -0.065491        -0.222500        -0.186923
 O         0.916191        -1.109875         1.832641
 H         3.476848         1.219117         3.758875
 H         4.866191         1.275006         2.641525
 H         3.694231         2.641546         2.758545
 H         2.755073        -1.117631        -0.617815
 H         3.233470         2.075004        -0.287904
 H         1.117319         2.016010         1.806973
 H        -1.094757        -0.277223         0.344326
 H        -0.233577         0.674219        -0.816238
 H         0.102165        -1.061512        -0.781675
 H         1.825201        -1.392261         2.012713
