19
Iteration:  2685
 C         3.919608         1.609999         2.740421
 C         3.106750         0.924719         1.706278
 O         3.365760        -0.504848         1.393202
 C         2.575174        -0.229688         0.144525
 C         2.708255         1.244138         0.310890
 C         1.519271         1.142488         1.315334
 C         1.053143        -0.198889         0.817056
 C         0.000270        -0.224120        -0.275555
 O         0.769041        -1.238328         1.784266
 H         3.919140         0.948111         3.654681
 H         4.921138         1.776678         2.354046
 H         3.542669         2.590523         3.100743
 H         2.752287        -0.875475        -0.771070
 H         2.876566         2.083418        -0.292795
 H         0.947365         1.902696         1.728468
 H         0.315151         0.504468        -0.920976
 H        -0.151904        -1.093477        -0.925651
 H        -1.024379         0.123628         0.058890
 H         1.569062        -1.558380         2.155938
