19
Iteration:  2618
 C         3.639914         1.465339         2.863619
 C         3.023700         0.882290         1.670024
 O         3.450082        -0.512849         1.261720
 C         2.626550        -0.276007         0.056515
 C         2.773073         1.324063         0.223489
 C         1.586889         1.141441         1.294594
 C         1.109495        -0.205593         0.758287
 C        -0.118300        -0.243074        -0.146459
 O         0.931765        -1.045446         1.862116
 H         3.028150         1.218834         3.768887
 H         4.621921         1.005704         3.075553
 H         3.596319         2.590529         2.989492
 H         2.736411        -1.053813        -0.720789
 H         2.941959         2.247802        -0.438449
 H         1.098439         1.930635         1.881589
 H         0.051163         0.471541        -0.951367
 H        -0.257693        -1.244428        -0.619875
 H        -0.931893         0.069575         0.506560
 H         1.734468        -1.621728         1.965278
