19
Iteration:  3293charge 0 multiplicity 1
 C         3.765834         1.472047         2.888731
 C         3.061611         0.933661         1.662815
 O         3.453752        -0.436208         1.323764
 C         2.585664        -0.300372         0.124112
 C         2.743337         1.238839         0.210209
 C         1.516922         1.185520         1.292463
 C         1.088423        -0.194760         0.799331
 C        -0.075895        -0.270191        -0.254625
 O         0.861802        -1.100483         1.842131
 H         3.568810         0.704606         3.673519
 H         4.825523         1.457208         2.984288
 H         3.355959         2.406082         3.139079
 H         2.869298        -0.981226        -0.668595
 H         2.720599         2.041485        -0.635742
 H         1.024103         2.012034         1.745374
 H        -0.112970         0.513909        -1.201601
 H         0.091042        -1.340455        -0.690600
 H        -0.963083        -0.214665         0.261682
 H         1.761069        -1.044680         2.146519
