19
Iteration:  2107
 C         3.888449         1.817950         2.636605
 C         3.138885         0.881064         1.679843
 O         3.450350        -0.545873         1.334094
 C         2.581564        -0.347032         0.231677
 C         2.614001         1.249669         0.351251
 C         1.567478         1.013586         1.423241
 C         1.106699        -0.329074         0.866607
 C         0.102274         0.004996        -0.256232
 O         0.608777        -1.335474         1.700713
 H         3.953049         1.226822         3.518299
 H         4.898394         2.175401         2.313323
 H         3.176238         2.672901         2.883057
 H         2.875561        -0.795239        -0.684147
 H         2.797287         2.141250        -0.261288
 H         0.834707         1.737201         1.732162
 H         0.585782         0.722362        -1.028274
 H        -0.199003        -0.808504        -0.873669
 H        -0.670271         0.546673         0.236042
 H         1.223828        -1.291680         2.497365
