19
Iteration:  4300
 C         3.841489         2.010409         2.653736
 C         3.130564         0.968665         1.786683
 O         3.478325        -0.520889         1.406267
 C         2.691936        -0.340330         0.223686
 C         2.608495         1.207446         0.353066
 C         1.611720         1.019065         1.412972
 C         1.108311        -0.293547         0.873844
 C         0.012032        -0.025902        -0.284851
 O         0.565673        -1.489173         1.598284
 H         3.210803         2.453644         3.459360
 H         4.743141         1.555498         3.121289
 H         4.222238         2.771643         1.894665
 H         3.028539        -0.905468        -0.655481
 H         2.831321         1.871180        -0.451591
 H         1.006559         1.754496         1.870824
 H         0.127016         0.869605        -0.634943
 H         0.042955        -0.814160        -0.978552
 H        -0.907609        -0.291864         0.306461
 H         1.348827        -1.928651         1.854597
