19
Iteration:  1993
 C         3.743679         1.637882         2.835151
 C         3.107632         0.904793         1.674050
 O         3.354818        -0.554954         1.255831
 C         2.562759        -0.281115         0.067298
 C         2.766611         1.236893         0.314670
 C         1.616207         1.154098         1.334657
 C         1.096631        -0.193988         0.844386
 C        -0.092178        -0.180249        -0.169155
 O         0.861521        -1.202092         1.776962
 H         3.424761         1.286148         3.854770
 H         4.780504         1.449898         2.734692
 H         3.696218         2.709417         2.786710
 H         2.730914        -0.893541        -0.900428
 H         3.091344         2.084954        -0.361390
 H         1.127635         2.042492         1.707193
 H        -0.023145         0.684233        -0.729672
 H        -0.087224        -1.039640        -0.827779
 H        -1.031685        -0.182385         0.431765
 H         1.630268        -1.634422         2.049506
