19
Iteration:   435charge 0 multiplicity 1
 C         3.964798         1.608333         2.748206
 C         3.024071         0.863727         1.725657
 O         3.312432        -0.540413         1.435864
 C         2.512135        -0.373434         0.090731
 C         2.687099         1.216474         0.271773
 C         1.595950         1.130563         1.307838
 C         1.117210        -0.157583         0.758955
 C        -0.047791        -0.168406        -0.176546
 O         0.849432        -1.129135         1.756091
 H         3.731188         1.387730         3.801103
 H         4.953167         1.805986         2.323772
 H         3.558399         2.655645         2.679812
 H         2.809419        -1.053118        -0.687221
 H         2.915785         1.962986        -0.454779
 H         0.851067         1.954079         1.725620
 H        -0.924511        -0.020348         0.507720
 H        -0.084467         0.709840        -0.806595
 H        -0.077875        -1.061015        -0.787767
 H         1.850917        -1.333145         1.995939
