19
Iteration:   306
 C         4.025382         1.698709         2.511732
 C         3.105737         0.971166         1.683302
 O         3.369896        -0.496246         1.511182
 C         2.544058        -0.351693         0.255403
 C         2.633201         1.220349         0.287967
 C         1.572985         1.199078         1.468135
 C         1.059301        -0.234659         0.827253
 C        -0.021859        -0.046088        -0.254168
 O         0.691038        -1.426332         1.649160
 H         4.305324         1.097121         3.409207
 H         5.036949         1.722593         2.223047
 H         3.537976         2.606561         2.820731
 H         2.907418        -1.015354        -0.503040
 H         2.924991         2.088830        -0.250460
 H         1.138429         2.239253         1.847755
 H        -1.045667        -0.068484         0.272850
 H         0.196573         0.833509        -0.928371
 H        -0.166209        -0.929039        -0.912467
 H         1.570894        -1.567869         2.188515
