19
Iteration:  2225charge 0 multiplicity 1
 C         3.784081         1.538477         2.781613
 C         3.075201         0.919442         1.640577
 O         3.388645        -0.431428         1.265277
 C         2.540132        -0.366092         0.127473
 C         2.735281         1.314786         0.284719
 C         1.630793         1.125214         1.313544
 C         1.053776        -0.232419         0.859234
 C         0.066915        -0.167811        -0.236071
 O         0.736389        -1.214707         1.866105
 H         3.278199         1.366610         3.706713
 H         4.804053         1.110272         2.811148
 H         3.870643         2.615332         2.647109
 H         2.889093        -1.136129        -0.554952
 H         2.831034         2.216790        -0.435846
 H         1.019793         1.836984         1.806466
 H         0.345855         0.553677        -1.106410
 H        -0.093509        -1.139546        -0.691049
 H        -0.795392         0.279920         0.115161
 H         1.628192        -1.208999         2.430808
