19
Iteration:  1438charge 0 multiplicity 1
 C         3.968517         1.649734         2.641046
 C         3.180080         0.938563         1.595552
 O         3.497337        -0.468707         1.382736
 C         2.498547        -0.386683         0.319970
 C         2.615959         1.221692         0.219394
 C         1.588343         1.098949         1.416974
 C         1.065517        -0.217228         0.928814
 C         0.055166        -0.049088        -0.294862
 O         0.576452        -1.277696         1.737326
 H         3.463172         1.407694         3.591399
 H         4.940965         1.221714         2.613338
 H         4.133815         2.761035         2.431227
 H         2.714396        -1.055192        -0.469865
 H         2.644248         2.036628        -0.559661
 H         1.002957         1.901172         1.941175
 H        -0.769802        -0.598790        -0.030889
 H        -0.048536         1.044816        -0.528822
 H         0.346364        -0.517609        -1.282832
 H         1.139626        -1.596617         2.538868
