19
Iteration:   554
 C         3.974792         1.725108         2.602119
 C         3.111292         0.878446         1.687533
 O         3.264071        -0.537455         1.473476
 C         2.522571        -0.328388         0.207074
 C         2.712610         1.246651         0.342631
 C         1.634969         1.062463         1.428189
 C         1.072976        -0.209440         0.801514
 C        -0.015282        -0.125800        -0.244126
 O         0.752198        -1.229047         1.676793
 H         3.908804         1.482189         3.631512
 H         5.007249         1.649804         2.122256
 H         3.682245         2.818332         2.492686
 H         2.791781        -0.963224        -0.658808
 H         3.047164         1.987590        -0.408802
 H         0.956927         1.868240         1.979458
 H        -0.992590         0.020862         0.322814
 H         0.114888         0.717839        -0.977472
 H        -0.180171        -1.131735        -0.767799
 H         1.645863        -1.443798         2.051854
