19
Iteration:  4716charge 0 multiplicity 1
 C         3.889250         1.922828         2.638802
 C         3.056490         0.865994         1.799725
 O         3.554592        -0.514450         1.382251
 C         2.587961        -0.421022         0.304796
 C         2.734241         1.107275         0.359170
 C         1.597501         1.105576         1.386748
 C         1.055917        -0.229888         0.859216
 C         0.145327        -0.126097        -0.425398
 O         0.402678        -1.255596         1.717088
 H         3.332970         2.709808         3.222760
 H         4.624728         1.518450         3.248946
 H         4.529042         2.377739         1.868938
 H         2.798967        -1.188845        -0.464327
 H         3.027043         2.042551        -0.239997
 H         0.922192         1.819559         1.799382
 H         0.739084         0.512065        -1.270323
 H        -0.000554        -1.115495        -0.807230
 H        -0.790819         0.252098        -0.154890
 H         1.107337        -1.575145         2.223637
