19
Iteration:  1246
 C         3.896629         1.542475         2.762160
 C         3.092386         0.940940         1.645724
 O         3.311936        -0.536562         1.453307
 C         2.579694        -0.277884         0.132366
 C         2.709724         1.171257         0.220825
 C         1.610921         1.166284         1.256983
 C         1.092114        -0.186616         0.831041
 C        -0.077220        -0.179157        -0.215432
 O         0.834120        -1.116237         1.780436
 H         3.443145         1.279384         3.708541
 H         4.908858         1.165078         2.560473
 H         3.887055         2.666213         2.812609
 H         2.756049        -0.952153        -0.666617
 H         2.802565         2.038901        -0.446316
 H         0.979195         1.977981         1.924321
 H        -0.985462        -0.239311         0.485674
 H        -0.324155         0.677386        -0.774035
 H        -0.015570        -0.999668        -0.913355
 H         1.777290        -1.557711         2.050549
