19
Iteration:  1883
 C         4.014196         1.688650         2.567606
 C         3.032208         0.892670         1.807897
 O         3.373192        -0.506557         1.398073
 C         2.579358        -0.313370         0.187779
 C         2.668859         1.265424         0.433099
 C         1.565690         1.099090         1.466479
 C         1.108652        -0.264802         0.754004
 C         0.014270        -0.131514        -0.283837
 O         0.664707        -1.259442         1.650988
 H         4.100818         1.224605         3.545139
 H         4.968205         1.820946         2.168483
 H         3.568187         2.711597         2.668584
 H         2.922695        -0.879359        -0.695282
 H         2.885931         2.064788        -0.232636
 H         1.024257         1.895672         1.949416
 H         0.109358         0.607959        -0.970159
 H        -0.170396        -1.048523        -0.707109
 H        -0.903346         0.142153         0.277339
 H         1.498852        -1.388104         2.102413
