19
Iteration:  4264charge 0 multiplicity 1
 C         3.854728         1.723997         2.639481
 C         2.990624         0.978395         1.693232
 O         3.401336        -0.382773         1.449558
 C         2.633159        -0.328318         0.260677
 C         2.540951         1.205082         0.280616
 C         1.529999         1.094872         1.494255
 C         1.096761        -0.258733         0.826826
 C         0.141814        -0.066403        -0.275378
 O         0.781987        -1.454089         1.630804
 H         3.563754         2.156314         3.568634
 H         4.712668         0.981192         2.764896
 H         4.375092         2.497639         2.071330
 H         3.054165        -0.999735        -0.519246
 H         2.725569         1.975274        -0.490673
 H         0.727510         1.815996         1.871952
 H         0.246237         0.727414        -1.039297
 H         0.169154        -1.024720        -0.860607
 H        -0.893034         0.152842         0.026764
 H         1.341094        -1.349130         2.374278
