19
Iteration:  4398charge 0 multiplicity 1
 C         3.774843         1.554497         2.818078
 C         3.041300         0.920687         1.737000
 O         3.366039        -0.437962         1.377012
 C         2.581998        -0.220205         0.145208
 C         2.699605         1.258183         0.320962
 C         1.570199         1.143051         1.361856
 C         1.121265        -0.213301         0.740766
 C        -0.038264        -0.471257        -0.301065
 O         0.884418        -1.040749         1.714290
 H         3.554195         0.986367         3.739540
 H         4.823657         1.438098         2.576840
 H         3.650259         2.659850         2.963621
 H         2.738087        -0.840997        -0.735867
 H         2.942187         2.141628        -0.334596
 H         1.026484         2.013557         1.716448
 H         0.218348        -0.161109        -1.244665
 H        -0.169415        -1.553474        -0.328456
 H        -1.031614        -0.004605         0.070105
 H         1.646350        -0.936106         2.326136
