19
Iteration:  4050charge 0 multiplicity 1
 C         3.970753         1.749271         2.653418
 C         3.020814         0.956759         1.714050
 O         3.483580        -0.322011         1.392632
 C         2.551821        -0.346459         0.277292
 C         2.474298         1.259245         0.332851
 C         1.526880         1.005767         1.572222
 C         1.101986        -0.289046         0.833183
 C         0.117723        -0.123468        -0.378696
 O         0.701049        -1.422268         1.586199
 H         3.792364         1.535915         3.673427
 H         4.972416         1.413812         2.407581
 H         4.063949         2.840222         2.521134
 H         2.882070        -0.942924        -0.599436
 H         2.682299         2.097249        -0.308449
 H         0.810486         1.759660         2.087776
 H         0.642284         0.523919        -1.087608
 H         0.087824        -1.122930        -0.816017
 H        -0.898938         0.357638         0.046202
 H         1.249842        -1.368668         2.446841
