19
Iteration:  3093charge 0 multiplicity 1
 C         3.745071         1.407822         2.873046
 C         3.080984         0.897475         1.585980
 O         3.356532        -0.494220         1.351188
 C         2.523995        -0.236250         0.141334
 C         2.810951         1.381340         0.216608
 C         1.541911         1.218366         1.164916
 C         1.105035        -0.169115         0.842312
 C        -0.048747        -0.322094        -0.131372
 O         0.885891        -1.144545         1.805793
 H         3.735269         0.646510         3.597754
 H         4.808139         1.547547         2.575485
 H         3.280199         2.310976         3.367452
 H         2.863295        -0.915733        -0.730099
 H         2.941278         2.340681        -0.414955
 H         1.029153         1.997231         1.789833
 H         0.397168         0.215932        -1.121072
 H        -0.268715        -1.385302        -0.276434
 H        -0.977782         0.269286         0.115948
 H         1.619680        -1.196708         2.351485
