19
Iteration:   905
 C         3.899419         1.682472         2.730570
 C         3.114349         0.996241         1.657357
 O         3.416700        -0.492727         1.363584
 C         2.504913        -0.434483         0.218058
 C         2.617293         1.149990         0.202194
 C         1.637298         1.104111         1.398879
 C         1.133958        -0.296655         0.825068
 C         0.085002         0.014825        -0.189884
 O         0.665775        -1.256778         1.730940
 H         3.580655         1.302646         3.728066
 H         4.923029         1.585846         2.482695
 H         3.814950         2.737271         2.697942
 H         2.734528        -1.214313        -0.648816
 H         2.534232         1.792832        -0.632369
 H         0.927010         1.906178         1.886958
 H        -0.920200         0.286551         0.231461
 H         0.521696         0.707869        -0.964813
 H        -0.156198        -0.835597        -0.747572
 H         1.230081        -1.145256         2.432784
