19
Iteration:  2198
 C         3.804371         1.443447         2.845745
 C         3.072981         0.868065         1.659198
 O         3.443282        -0.536147         1.337511
 C         2.565020        -0.259675         0.122890
 C         2.619471         1.280536         0.289734
 C         1.582079         1.204654         1.259110
 C         1.087325        -0.158320         0.727680
 C        -0.052908        -0.300187        -0.277546
 O         0.880048        -0.997890         1.866069
 H         3.044995         1.363762         3.734286
 H         4.732689         0.862111         2.944323
 H         3.975054         2.547736         2.924620
 H         3.011163        -0.788629        -0.755033
 H         3.107775         1.951637        -0.350015
 H         0.782513         1.851032         1.676808
 H        -0.330976         0.267967        -1.109502
 H        -0.155484        -1.387872        -0.565855
 H        -0.901008        -0.082422         0.580667
 H         1.840242        -1.237313         2.222051
