19
Iteration:   482
 C         3.998655         1.750283         2.578331
 C         3.134958         0.927306         1.654748
 O         3.492320        -0.444483         1.384294
 C         2.499054        -0.372467         0.336989
 C         2.554245         1.116829         0.295286
 C         1.597017         1.055572         1.441205
 C         1.120741        -0.272380         0.882545
 C         0.108913        -0.021625        -0.248364
 O         0.536957        -1.275332         1.660509
 H         3.884189         1.275052         3.681068
 H         4.942684         1.731349         2.096694
 H         3.762755         2.782340         2.706189
 H         2.785267        -1.129680        -0.431221
 H         2.550350         1.830306        -0.548684
 H         1.126184         1.834037         1.841274
 H        -0.896661        -0.335856         0.060868
 H        -0.026239         1.086272        -0.516176
 H         0.465015        -0.469309        -1.149647
 H         1.186237        -1.558727         2.341498
