19
Iteration:  4805
 C         3.815888         1.676103         2.732978
 C         3.117740         0.910996         1.693039
 O         3.221789        -0.531265         1.550312
 C         2.623411        -0.395452         0.262855
 C         2.793775         1.122230         0.243317
 C         1.660909         1.153666         1.260845
 C         1.108833        -0.162699         0.724332
 C         0.007920        -0.278024        -0.296293
 O         0.723179        -1.020336         1.725726
 H         3.981653         1.009830         3.586470
 H         4.787475         1.997829         2.400981
 H         3.321343         2.562315         2.996854
 H         3.049531        -1.093362        -0.464194
 H         2.939964         1.880285        -0.465846
 H         1.084334         2.063201         1.621076
 H         0.079527         0.344397        -1.167939
 H         0.028579        -1.306654        -0.719257
 H        -0.973720        -0.125404         0.109741
 H         1.450292        -1.089561         2.322686
