19
Iteration:  1788
 C         3.955583         1.698829         2.652634
 C         3.078040         0.876161         1.743204
 O         3.422470        -0.547469         1.396398
 C         2.602258        -0.314236         0.171945
 C         2.718402         1.240140         0.371751
 C         1.544092         1.056618         1.424389
 C         1.069740        -0.216466         0.770296
 C        -0.066570        -0.055295        -0.253090
 O         0.704003        -1.238752         1.668676
 H         3.754578         1.414188         3.723754
 H         5.044556         1.647107         2.416318
 H         3.632747         2.704146         2.410935
 H         2.847072        -1.033518        -0.677613
 H         2.861908         2.093598        -0.269987
 H         1.054913         1.740704         2.001681
 H        -0.284129         0.945204        -0.620108
 H         0.248183        -0.873580        -1.070581
 H        -1.013513        -0.475060         0.146354
 H         1.425704        -1.281150         2.409683
