19
Iteration:   992
 C         3.938694         1.660695         2.652130
 C         3.053189         0.896824         1.709773
 O         3.408187        -0.455604         1.405714
 C         2.498878        -0.361265         0.257278
 C         2.608877         1.154781         0.227931
 C         1.618188         1.125543         1.402128
 C         1.088734        -0.258617         0.851850
 C         0.063082        -0.032964        -0.282027
 O         0.720152        -1.267473         1.730637
 H         3.934680         1.163516         3.639412
 H         4.889990         1.599305         2.148082
 H         3.681414         2.671280         2.835825
 H         2.534904        -1.119897        -0.635391
 H         3.016608         1.941832        -0.371181
 H         0.952557         2.015394         1.762732
 H        -0.816989         0.586624        -0.017538
 H         0.592840         0.347948        -1.204031
 H        -0.179782        -0.971546        -0.647798
 H         1.316330        -1.154529         2.568489
