19
Iteration:  3798charge 0 multiplicity 1
 C         3.704957         1.597097         2.701996
 C         3.071386         0.909105         1.594975
 O         3.373655        -0.497296         1.434486
 C         2.556617        -0.364937         0.187257
 C         2.662491         1.244208         0.273384
 C         1.542716         1.146802         1.332992
 C         1.136856        -0.218399         0.812178
 C         0.038588        -0.145726        -0.188648
 O         0.909824        -1.199307         1.729814
 H         3.301893         1.456705         3.692018
 H         4.837741         1.425156         2.781234
 H         3.617501         2.728325         2.630593
 H         2.654067        -1.038142        -0.680818
 H         3.028272         2.080829        -0.380902
 H         0.934285         1.923151         1.912343
 H         0.143975         0.735981        -0.669926
 H        -0.024374        -0.898546        -0.925831
 H        -0.940181        -0.094321         0.387893
 H         1.766078        -1.458695         2.138685
