19
Iteration:  2142
 C         3.805238         1.526439         2.796332
 C         3.120840         0.957891         1.657205
 O         3.377294        -0.473913         1.412970
 C         2.559427        -0.352943         0.234759
 C         2.686343         1.244702         0.219274
 C         1.590210         1.148582         1.249745
 C         1.098962        -0.200508         0.805420
 C        -0.074099        -0.165413        -0.216948
 O         0.873174        -1.157851         1.709400
 H         3.452847         0.925290         3.694965
 H         4.902084         1.477273         2.818063
 H         3.499790         2.635141         2.958646
 H         2.762273        -1.080363        -0.532028
 H         2.950337         2.143389        -0.447682
 H         0.959004         1.825144         1.707762
 H         0.056864         0.727169        -0.850178
 H        -0.312476        -1.136206        -0.677627
 H        -1.054766        -0.034023         0.405181
 H         1.753709        -1.539555         2.096592
