19
Iteration:   296
 C         4.063914         1.688575         2.532450
 C         3.071421         0.976679         1.664372
 O         3.324868        -0.425499         1.508765
 C         2.550433        -0.331650         0.288103
 C         2.707782         1.236333         0.314972
 C         1.584358         1.177504         1.419648
 C         1.100906        -0.306782         0.859479
 C        -0.037568        -0.053337        -0.248139
 O         0.675245        -1.445774         1.619310
 H         4.145373         1.067420         3.386140
 H         4.864190         1.893013         1.828344
 H         3.909513         2.694137         2.793009
 H         2.772020        -1.142236        -0.404866
 H         2.975471         1.913461        -0.450153
 H         0.936342         2.064949         1.891830
 H        -1.079428        -0.022276         0.260325
 H         0.014409         1.064720        -0.469238
 H         0.071053        -0.697724        -1.128476
 H         1.304136        -1.814091         2.362163
