19
Iteration:  2564charge 0 multiplicity 1
 C         3.918380         1.675525         2.709829
 C         3.111582         0.929169         1.719621
 O         3.393075        -0.413699         1.431743
 C         2.576784        -0.285500         0.218667
 C         2.623588         1.220988         0.297599
 C         1.573968         1.080707         1.398181
 C         1.074427        -0.249045         0.810225
 C         0.014908        -0.038882        -0.236141
 O         0.743624        -1.406047         1.632481
 H         3.857769         1.234163         3.727969
 H         4.958293         1.776865         2.315439
 H         3.676967         2.804297         2.762633
 H         2.811012        -1.015935        -0.611779
 H         2.700829         2.048915        -0.480683
 H         0.883454         1.937596         1.670121
 H         0.284295         0.662114        -1.031977
 H        -0.239009        -1.068678        -0.633377
 H        -0.941574         0.234848         0.258921
 H         1.511888        -1.762984         2.067536
