19
Iteration:  1071charge 0 multiplicity 1
 C         3.799514         1.508302         2.750525
 C         3.029322         0.855035         1.662595
 O         3.237671        -0.543185         1.416688
 C         2.556463        -0.305259         0.076074
 C         2.790236         1.251456         0.227307
 C         1.638790         1.221777         1.362969
 C         1.103281        -0.183529         0.759953
 C        -0.075222        -0.237617        -0.210655
 O         0.925300        -1.058128         1.834203
 H         3.471072         1.157750         3.707298
 H         4.809410         1.348188         2.729973
 H         3.569873         2.590436         2.572361
 H         2.892990        -0.938807        -0.719998
 H         3.343105         1.844694        -0.562885
 H         0.963168         1.915603         1.691458
 H        -0.977618        -0.497803         0.433978
 H        -0.180774         0.704966        -0.666912
 H        -0.081684        -1.049172        -0.851196
 H         1.888097        -1.037018         2.193967
