19
Iteration:  1203
 C         4.020467         1.733469         2.555550
 C         3.083881         0.947761         1.683665
 O         3.397794        -0.523421         1.533719
 C         2.549000        -0.369351         0.262972
 C         2.635814         1.189589         0.250965
 C         1.555708         1.074804         1.426694
 C         1.066293        -0.226566         0.843372
 C         0.043125        -0.003154        -0.194019
 O         0.651417        -1.351838         1.602144
 H         4.136729         1.256911         3.532910
 H         5.018594         1.838935         2.079745
 H         3.707894         2.778535         2.862317
 H         2.853149        -0.999345        -0.535965
 H         2.792401         1.956830        -0.487838
 H         0.997118         2.071827         1.805735
 H        -1.027393         0.367802         0.146204
 H         0.482083         0.678110        -0.933842
 H        -0.125872        -0.945638        -0.835166
 H         1.335209        -1.433487         2.331466
