19
Iteration:  3232
 C         3.974508         1.770370         2.621178
 C         3.062674         0.892567         1.711325
 O         3.463074        -0.484292         1.404912
 C         2.497087        -0.383738         0.249382
 C         2.563681         1.227501         0.363233
 C         1.532016         1.091196         1.518800
 C         1.061593        -0.316755         0.817508
 C         0.084268        -0.066274        -0.353805
 O         0.750535        -1.300435         1.624753
 H         3.971669         1.257240         3.614942
 H         5.010269         1.975243         2.234454
 H         3.449887         2.747747         2.838395
 H         2.837169        -1.092634        -0.524298
 H         2.906684         2.001691        -0.329027
 H         1.000991         1.980899         1.974818
 H         0.570203         0.500067        -1.066703
 H        -0.305771        -0.936266        -0.896376
 H        -0.883117         0.526574         0.086632
 H         1.128959        -1.257974         2.545628
