19
Iteration:  4677
 C         3.783223         1.610793         2.744340
 C         3.051263         0.996029         1.661910
 O         3.364524        -0.421109         1.472789
 C         2.554292        -0.467556         0.255936
 C         2.660511         1.233927         0.190639
 C         1.635995         1.109315         1.321968
 C         1.143739        -0.213935         0.826415
 C         0.173024        -0.192777        -0.356924
 O         0.692794        -1.154811         1.761767
 H         3.589201         2.668118         2.927432
 H         3.495823         0.931452         3.652924
 H         4.865827         1.517893         2.411939
 H         2.901072        -1.191463        -0.485559
 H         2.837804         1.988651        -0.531157
 H         1.015275         1.962205         1.735501
 H         0.384391         0.476016        -1.120185
 H         0.028716        -1.303679        -0.661414
 H        -0.860809         0.039784         0.058124
 H         1.214843        -1.043657         2.614836
