19
Iteration:  2688
 C         3.913708         1.641800         2.732366
 C         3.108220         0.934785         1.727037
 O         3.374819        -0.514205         1.379123
 C         2.569309        -0.255700         0.162743
 C         2.700086         1.253188         0.324510
 C         1.535641         1.119363         1.310688
 C         1.039635        -0.231095         0.818787
 C        -0.011186        -0.204069        -0.282471
 O         0.761060        -1.237141         1.773690
 H         4.083006         1.039564         3.671039
 H         4.935492         1.696750         2.276807
 H         3.493707         2.562047         3.071805
 H         2.835060        -0.813988        -0.757989
 H         2.850362         2.134119        -0.284923
 H         0.959930         2.021258         1.753590
 H         0.383478         0.563262        -0.961778
 H        -0.091516        -1.071054        -0.914978
 H        -1.019486         0.185330         0.047831
 H         1.542386        -1.661790         2.218619
