19
Iteration:  1084charge 0 multiplicity 1
 C         3.848677         1.528173         2.743343
 C         3.045784         0.926923         1.671976
 O         3.252973        -0.493439         1.395031
 C         2.565881        -0.318982         0.174775
 C         2.786247         1.175588         0.223733
 C         1.561301         1.179542         1.273291
 C         1.105320        -0.133543         0.765839
 C        -0.086493        -0.201849        -0.179293
 O         0.894464        -1.133943         1.812911
 H         3.448956         1.220300         3.674007
 H         4.888440         1.280555         2.526025
 H         3.821648         2.617212         2.834289
 H         2.745032        -1.061513        -0.527931
 H         3.125516         2.073761        -0.219084
 H         1.221704         2.068501         1.829214
 H        -1.012198        -0.223143         0.355094
 H        -0.123927         0.561310        -0.938581
 H         0.165631        -1.066894        -0.843516
 H         1.850109        -1.561865         1.985287
