19
Iteration:   949charge 0 multiplicity 1
 C         4.092052         1.803064         2.507709
 C         3.015938         0.897320         1.849105
 O         3.340711        -0.515552         1.509057
 C         2.544540        -0.355275         0.226711
 C         2.640531         1.180640         0.325181
 C         1.587906         1.085203         1.485602
 C         1.112871        -0.216107         0.799600
 C         0.039186        -0.100539        -0.259005
 O         0.631450        -1.295544         1.573215
 H         4.215045         1.571631         3.567145
 H         4.936388         1.740840         1.919019
 H         3.858535         2.838832         2.434923
 H         2.870850        -1.131089        -0.586250
 H         2.952027         2.008184        -0.258026
 H         1.039506         1.995254         1.976531
 H        -0.594024         0.709195         0.195961
 H         0.400506         0.106236        -1.295867
 H        -0.559431        -0.927457        -0.323307
 H         1.335353        -1.737072         1.926527
