19
Iteration:  1894
 C         3.929028         1.607521         2.649838
 C         3.070336         0.830579         1.717273
 O         3.363353        -0.516064         1.417256
 C         2.551863        -0.275162         0.221851
 C         2.623686         1.239251         0.328183
 C         1.566425         1.137947         1.467843
 C         1.121305        -0.155327         0.735126
 C        -0.026839        -0.160414        -0.284768
 O         0.799901        -1.173325         1.673168
 H         4.077991         1.124578         3.612837
 H         4.845067         1.644204         2.157260
 H         3.472159         2.595390         2.902179
 H         2.905220        -0.892781        -0.624566
 H         2.870873         2.022647        -0.333656
 H         0.861026         1.627994         2.073067
 H         0.196956         0.354115        -1.127022
 H        -0.126256        -1.148456        -0.524045
 H        -0.943990         0.177328         0.233738
 H         1.612506        -1.429296         2.243784
