19
Iteration:  1964
 C         3.586321         1.370429         2.896480
 C         3.140738         0.880327         1.582209
 O         3.441580        -0.470546         1.254849
 C         2.647672        -0.295841         0.108599
 C         2.734458         1.294030         0.235901
 C         1.604105         1.112550         1.286061
 C         1.179011        -0.148161         0.750888
 C        -0.174511        -0.206013        -0.104035
 O         0.919038        -1.045259         1.828248
 H         3.138015         0.990377         3.807186
 H         4.728020         1.328021         2.819200
 H         3.352148         2.427291         2.908994
 H         2.781990        -0.961648        -0.777768
 H         3.004774         1.983704        -0.613022
 H         0.985737         1.988398         1.775830
 H        -0.266593         0.494824        -0.994119
 H        -0.433235        -1.264772        -0.450598
 H        -0.814668        -0.053912         0.692062
 H         1.568757        -1.025229         2.506403
