19
Iteration:  3202
 C         4.011583         1.820729         2.499972
 C         3.015675         0.965005         1.766688
 O         3.364154        -0.490226         1.555714
 C         2.569325        -0.295544         0.247429
 C         2.616330         1.246068         0.310221
 C         1.584498         1.054571         1.518168
 C         1.113573        -0.362109         0.812661
 C         0.077884         0.011250        -0.232274
 O         0.627065        -1.434627         1.539407
 H         4.085731         1.560463         3.504055
 H         5.046270         1.664336         2.162788
 H         3.757985         2.900031         2.339081
 H         3.105990        -0.862711        -0.542849
 H         2.968938         1.874232        -0.425635
 H         0.928697         1.856019         2.014801
 H         0.447870         0.692675        -0.975922
 H        -0.125181        -0.827556        -0.870667
 H        -0.859341         0.294100         0.364127
 H         1.321448        -1.907067         1.926380
