19
Iteration:   483
 C         3.996234         1.751629         2.581627
 C         3.137240         0.938554         1.647962
 O         3.489597        -0.451420         1.381273
 C         2.508118        -0.378363         0.340877
 C         2.545325         1.117750         0.299614
 C         1.594806         1.051337         1.447267
 C         1.123777        -0.270377         0.883811
 C         0.111440        -0.019906        -0.247891
 O         0.534883        -1.274212         1.660422
 H         3.905992         1.271751         3.677910
 H         4.942115         1.725239         2.089444
 H         3.786538         2.802965         2.697423
 H         2.796348        -1.121719        -0.433673
 H         2.534846         1.809884        -0.556021
 H         1.116995         1.849470         1.824017
 H        -0.881472        -0.343080         0.046545
 H         0.006700         1.085032        -0.480756
 H         0.442535        -0.478461        -1.185482
 H         1.165347        -1.547641         2.302524
