19
Iteration:   845
 C         3.876894         1.537702         2.813499
 C         3.058084         0.953729         1.675553
 O         3.250009        -0.590498         1.387724
 C         2.522287        -0.300586         0.037228
 C         2.738677         1.176181         0.282280
 C         1.615461         1.246880         1.281124
 C         1.099711        -0.160042         0.728321
 C        -0.056269        -0.289625        -0.153363
 O         0.884132        -1.047579         1.788940
 H         3.651612         0.946298         3.680186
 H         4.962037         1.359748         2.724490
 H         3.478452         2.566641         2.996802
 H         2.802822        -0.904688        -0.744955
 H         3.313228         1.886714        -0.305146
 H         0.995421         2.031671         1.629497
 H        -0.973897        -0.371480         0.417084
 H        -0.172154         0.558102        -0.769889
 H         0.215494        -1.247729        -0.734416
 H         1.733764        -0.847216         2.385153
