19
Iteration:  2566
 C         3.901001         1.673084         2.716368
 C         3.119475         0.952820         1.723072
 O         3.388592        -0.422549         1.413170
 C         2.556824        -0.303697         0.221895
 C         2.657854         1.234252         0.286406
 C         1.582189         1.084398         1.391088
 C         1.067569        -0.247278         0.806556
 C         0.005487        -0.034117        -0.236297
 O         0.752882        -1.416013         1.645843
 H         3.813198         1.295567         3.758886
 H         4.911967         1.712349         2.349649
 H         3.657258         2.749002         2.794495
 H         2.830790        -0.987680        -0.680024
 H         2.717441         2.103477        -0.451578
 H         0.905183         1.862789         1.686398
 H         0.289562         0.585773        -1.005647
 H        -0.174906        -1.068073        -0.629713
 H        -0.989705         0.266275         0.290757
 H         1.505920        -1.685334         2.120265
