19
Iteration:  1947
 C         3.663414         1.333509         2.910979
 C         3.063690         0.955154         1.607625
 O         3.472865        -0.440297         1.308227
 C         2.575526        -0.319283         0.089990
 C         2.671509         1.271354         0.130050
 C         1.632033         1.189516         1.238475
 C         1.093361        -0.194129         0.761179
 C        -0.088897        -0.201955        -0.071077
 O         0.923607        -1.055384         1.838157
 H         3.098442         0.567312         3.498714
 H         4.735042         1.241394         3.055171
 H         3.385105         2.356080         3.374138
 H         2.856123        -0.997237        -0.701870
 H         2.919641         2.072587        -0.502925
 H         1.100076         1.943240         1.727551
 H         0.197569         0.233816        -1.067205
 H        -0.311872        -1.221557        -0.279707
 H        -1.026716         0.241985         0.521173
 H         1.799307        -1.169908         2.103679
