19
Iteration:  3758
 C         3.815040         1.470288         2.883353
 C         3.150241         0.962215         1.636239
 O         3.479609        -0.428829         1.332007
 C         2.543114        -0.285887         0.127838
 C         2.622881         1.319262         0.272104
 C         1.528457         1.160307         1.270506
 C         1.079022        -0.212137         0.768770
 C        -0.053362        -0.407605        -0.274552
 O         0.797563        -1.045580         1.848068
 H         3.697141         0.647833         3.599482
 H         4.902769         1.471557         2.758144
 H         3.330912         2.337902         3.274049
 H         2.891556        -0.997444        -0.644692
 H         2.924766         2.133261        -0.497401
 H         0.960256         1.884719         1.816172
 H         0.314479         0.297552        -1.127903
 H        -0.028299        -1.500242        -0.453099
 H        -1.000451         0.097583         0.036275
 H         1.762498        -1.112331         2.229877
