19
Iteration:   865
 C         3.793094         1.543456         2.795462
 C         3.104586         0.852504         1.649432
 O         3.409479        -0.549103         1.329470
 C         2.541134        -0.332286         0.183911
 C         2.800920         1.278344         0.276463
 C         1.655797         1.167490         1.267332
 C         1.075071        -0.130039         0.768641
 C        -0.126041        -0.253230        -0.261685
 O         0.790088        -1.050454         1.875993
 H         3.638839         1.199005         3.847539
 H         4.877110         1.478705         2.665516
 H         3.386624         2.628448         2.667756
 H         2.701544        -1.025916        -0.585230
 H         3.034846         1.959538        -0.518416
 H         1.145107         1.998676         1.855682
 H        -1.121918        -0.416043         0.325352
 H        -0.260709         0.701428        -0.786952
 H         0.006522        -1.149189        -0.890667
 H         1.682823        -1.555241         2.063385
