19
Iteration:   469
 C         3.974395         1.697697         2.552792
 C         3.101077         0.891198         1.698213
 O         3.493517        -0.434313         1.448123
 C         2.494343        -0.411833         0.204394
 C         2.685745         1.221211         0.233336
 C         1.630351         1.118123         1.447976
 C         1.029812        -0.214841         0.893547
 C         0.039128        -0.036889        -0.269072
 O         0.586156        -1.326720         1.716108
 H         4.018884         1.264910         3.639168
 H         5.048587         1.798522         2.428197
 H         3.433014         2.627213         2.537941
 H         2.636990        -1.153445        -0.604474
 H         2.975646         2.053738        -0.423317
 H         1.004874         1.856746         1.982373
 H        -0.901331        -0.573019         0.031377
 H        -0.082840         1.014664        -0.644315
 H         0.260878        -0.718784        -1.050888
 H         1.284998        -1.437460         2.429667
