19
Iteration:  1256
 C         3.801983         1.529774         2.772525
 C         3.090838         0.881480         1.679454
 O         3.326106        -0.544511         1.335816
 C         2.507959        -0.319360         0.145500
 C         2.741702         1.233340         0.256473
 C         1.651964         1.195398         1.297772
 C         1.141617        -0.123001         0.741546
 C        -0.083357        -0.221683        -0.210184
 O         0.843138        -1.076996         1.864247
 H         3.394135         1.238886         3.732382
 H         4.807946         1.181206         2.865628
 H         3.900695         2.641070         2.624399
 H         2.766941        -0.912008        -0.688085
 H         3.023133         1.903649        -0.567438
 H         1.018333         2.009601         1.853334
 H        -0.944100        -0.502670         0.442921
 H        -0.237207         0.581586        -0.814657
 H        -0.065922        -1.085531        -0.771311
 H         1.811124        -1.480281         2.010423
