19
Iteration:  3975
 C         3.599820         1.484121         2.814136
 C         3.017715         0.938733         1.642263
 O         3.348798        -0.479558         1.465726
 C         2.581741        -0.289770         0.131654
 C         2.659987         1.303929         0.201352
 C         1.586035         1.189038         1.225055
 C         1.160863        -0.208516         0.742383
 C        -0.063209        -0.189883        -0.127741
 O         1.048266        -1.195221         1.720993
 H         3.246889         0.924989         3.712427
 H         4.717770         1.560516         2.814373
 H         3.491284         2.615615         2.831355
 H         2.838537        -1.157392        -0.500006
 H         3.221004         1.937644        -0.383136
 H         0.990816         1.849282         1.910861
 H        -0.006472         0.699338        -0.732366
 H        -0.087416        -1.099260        -0.742571
 H        -0.869287        -0.274937         0.641694
 H         2.006728        -1.250810         1.990053
