19
Iteration:  2692
 C         3.921727         1.677558         2.722601
 C         3.084445         0.935458         1.748030
 O         3.392108        -0.521368         1.354295
 C         2.554985        -0.307884         0.198951
 C         2.677279         1.275919         0.351775
 C         1.566006         1.101446         1.325003
 C         1.037540        -0.293669         0.815317
 C        -0.027068        -0.152179        -0.292940
 O         0.741819        -1.239810         1.756988
 H         4.294153         1.201224         3.625559
 H         4.908840         1.664850         2.202599
 H         3.396856         2.629107         2.993377
 H         2.976256        -0.749942        -0.686067
 H         2.850537         2.189646        -0.319057
 H         1.067463         2.029823         1.734798
 H         0.458554         0.694388        -1.057839
 H        -0.008954        -1.130150        -0.859753
 H        -0.952029         0.223579         0.028660
 H         1.494298        -1.683278         2.222321
