19
Iteration:  3616charge 0 multiplicity 1
 C         3.919204         1.765966         2.577977
 C         3.060905         0.946382         1.704096
 O         3.436195        -0.415208         1.387795
 C         2.563441        -0.285837         0.294866
 C         2.591738         1.233183         0.373131
 C         1.560397         1.063521         1.462395
 C         1.133975        -0.334345         0.839548
 C         0.152848        -0.125397        -0.262400
 O         0.619876        -1.348083         1.627429
 H         3.475631         2.010567         3.508035
 H         4.842751         1.169572         2.692901
 H         4.132603         2.645618         2.024098
 H         2.725311        -0.966301        -0.528564
 H         2.798101         2.092517        -0.146112
 H         0.884746         1.809463         1.990885
 H         0.285189         0.825142        -0.784390
 H         0.045180        -1.009379        -0.898294
 H        -0.887831         0.078750         0.183760
 H         1.423080        -1.872812         1.926712
