19
Iteration:   780
 C         3.872510         1.692403         2.634024
 C         3.143646         0.890552         1.657652
 O         3.425721        -0.463614         1.366581
 C         2.547254        -0.427472         0.185871
 C         2.633903         1.253229         0.316896
 C         1.632708         1.003183         1.413880
 C         1.096963        -0.235582         0.851937
 C         0.096942        -0.013568        -0.225621
 O         0.621687        -1.265964         1.726608
 H         3.683389         1.318578         3.620329
 H         4.998859         1.743039         2.536146
 H         3.372960         2.708956         2.638048
 H         2.823198        -0.990024        -0.658626
 H         2.656711         2.101186        -0.332838
 H         1.103996         1.887522         1.852186
 H        -0.680107         0.693975        -0.006727
 H         0.443661         0.321093        -1.164140
 H        -0.202378        -1.112510        -0.531711
 H         1.168436        -1.223554         2.625483
