19
Iteration:  2779charge 0 multiplicity 1
 C         3.960764         1.705991         2.579255
 C         3.066498         0.909670         1.698733
 O         3.456863        -0.417485         1.497746
 C         2.626530        -0.363917         0.268742
 C         2.562909         1.203952         0.313156
 C         1.592285         1.075439         1.507139
 C         1.139609        -0.254450         0.830917
 C        -0.023166        -0.036342        -0.273412
 O         0.635543        -1.334283         1.572232
 H         3.778303         1.693725         3.653582
 H         4.983657         1.394587         2.296587
 H         3.964437         2.782348         2.259031
 H         3.036018        -0.998059        -0.510353
 H         2.591791         2.016916        -0.358030
 H         1.089209         1.806555         2.071790
 H         0.152751         0.767370        -1.136230
 H        -0.268330        -0.986164        -0.819111
 H        -0.879731         0.179144         0.305697
 H         1.380075        -1.780564         2.112445
