19
Iteration:  3512charge 0 multiplicity 1
 C         3.587776         1.491213         2.783812
 C         3.039838         0.838288         1.674728
 O         3.446162        -0.486934         1.330003
 C         2.605531        -0.336467         0.225814
 C         2.716614         1.297406         0.205886
 C         1.569820         1.202732         1.249841
 C         1.101117        -0.134718         0.814097
 C        -0.066537        -0.200975        -0.136681
 O         0.980246        -1.167968         1.752293
 H         3.221124         0.971526         3.770396
 H         4.683130         1.440965         2.717318
 H         3.308199         2.557227         2.826726
 H         2.807970        -0.951675        -0.676896
 H         3.042220         1.981629        -0.578533
 H         1.122843         2.057228         1.781075
 H        -0.013610         0.690104        -0.897312
 H        -0.063939        -1.125157        -0.790811
 H        -0.927024        -0.234490         0.495970
 H         1.769605        -1.061685         2.307378
