19
Iteration:  1787
 C         3.954366         1.688252         2.658165
 C         3.079927         0.872442         1.742556
 O         3.416747        -0.544760         1.397195
 C         2.603716        -0.308271         0.175130
 C         2.718429         1.235794         0.365598
 C         1.536991         1.048179         1.420102
 C         1.071139        -0.209937         0.770654
 C        -0.064416        -0.056637        -0.249971
 O         0.711175        -1.230380         1.666258
 H         3.754771         1.410832         3.712829
 H         4.998414         1.661204         2.405208
 H         3.651775         2.719707         2.431726
 H         2.823280        -1.025678        -0.669671
 H         2.869584         2.112640        -0.289872
 H         1.082834         1.763004         2.027963
 H        -0.282862         0.896580        -0.644176
 H         0.228349        -0.886763        -1.067330
 H        -1.008067        -0.496356         0.167957
 H         1.447541        -1.259601         2.408348
