19
Iteration:   247charge 0 multiplicity 1
 C         3.962583         1.717908         2.583409
 C         3.092974         0.865612         1.650179
 O         3.438699        -0.489920         1.399180
 C         2.477653        -0.323687         0.245210
 C         2.691038         1.204906         0.287508
 C         1.620689         1.064027         1.456386
 C         1.019557        -0.246384         0.844652
 C         0.016927        -0.030836        -0.276277
 O         0.672782        -1.292582         1.761160
 H         3.739132         1.476346         3.651904
 H         4.955390         1.804488         2.192728
 H         3.585717         2.789410         2.410993
 H         2.783441        -1.078294        -0.524958
 H         3.035797         2.006565        -0.392138
 H         1.146162         1.707569         2.093702
 H        -0.700179        -0.797561        -0.232015
 H        -0.527373         0.886388        -0.195022
 H         0.585213        -0.087473        -1.213543
 H         1.446486        -1.477241         2.239755
