19
Iteration:   755
 C         3.915539         1.850571         2.526133
 C         3.073032         0.857586         1.743750
 O         3.548531        -0.564301         1.344355
 C         2.543561        -0.367153         0.297105
 C         2.596822         1.171076         0.331443
 C         1.600129         1.006295         1.539973
 C         1.067141        -0.245828         0.846910
 C         0.127393         0.007922        -0.284171
 O         0.542115        -1.289975         1.660108
 H         3.877701         1.725891         3.654319
 H         4.938329         1.875812         2.301728
 H         3.306238         2.781790         2.313294
 H         2.699886        -0.896312        -0.646775
 H         3.029670         1.807199        -0.463496
 H         1.135059         1.763986         2.296032
 H        -0.623494         0.763446         0.157866
 H         0.419291         0.619483        -1.182544
 H        -0.225119        -0.867058        -0.711972
 H         1.320122        -1.549393         2.283973
