19
Iteration:  1599charge 0 multiplicity 1
 C         4.047013         1.710969         2.520696
 C         3.092661         0.985091         1.696554
 O         3.393379        -0.472181         1.440350
 C         2.580711        -0.285726         0.274137
 C         2.615562         1.228927         0.362401
 C         1.598509         1.012313         1.648882
 C         1.095704        -0.237373         0.871423
 C        -0.003630        -0.120756        -0.325900
 O         0.614453        -1.322222         1.553904
 H         3.954344         1.345598         3.529425
 H         5.006186         1.688052         2.086576
 H         3.947784         2.813739         2.496002
 H         2.691389        -1.009325        -0.511344
 H         2.808577         2.069753        -0.242685
 H         0.979431         1.899732         2.138871
 H        -0.254142         0.884916        -0.350816
 H         0.473786        -0.444177        -1.289871
 H        -0.979972        -0.657613        -0.243448
 H         1.338536        -1.670823         1.991135
