19
Iteration:  3038charge 0 multiplicity 1
 C         3.817954         1.590039         2.762660
 C         3.057847         0.858117         1.648272
 O         3.384403        -0.488498         1.346697
 C         2.596185        -0.258895         0.186084
 C         2.702576         1.255441         0.282229
 C         1.549228         1.174572         1.300780
 C         1.124339        -0.264856         0.797526
 C        -0.033738        -0.115247        -0.201892
 O         0.805487        -1.273020         1.800847
 H         3.908969         1.018923         3.653705
 H         4.838067         1.870966         2.393414
 H         3.202563         2.492372         2.914997
 H         2.873910        -0.865644        -0.714709
 H         3.090832         2.157623        -0.325933
 H         1.056803         2.024622         1.705021
 H         0.249783         0.501901        -1.113765
 H        -0.269144        -1.013834        -0.725845
 H        -0.930884         0.224811         0.325070
 H         1.583014        -1.367155         2.306194
