19
Iteration:  1342charge 0 multiplicity 1
 C         3.994339         1.581803         2.685604
 C         3.094225         0.941383         1.664915
 O         3.314447        -0.471713         1.451451
 C         2.515910        -0.342873         0.230393
 C         2.645619         1.177044         0.215371
 C         1.626560         1.197931         1.331199
 C         1.095400        -0.219206         0.843961
 C        -0.054017        -0.107282        -0.243810
 O         0.794233        -1.275564         1.723126
 H         3.989496         0.949458         3.584025
 H         4.957248         1.795036         2.307746
 H         3.431048         2.549063         3.000167
 H         2.697334        -0.980899        -0.592240
 H         3.167215         1.973830        -0.383713
 H         0.915750         2.054213         1.783672
 H        -0.720078         0.791651         0.184104
 H         0.413717         0.238634        -1.209898
 H        -0.688561        -1.027710        -0.424039
 H         1.494776        -1.401150         2.311503
