19
Iteration:   894charge 0 multiplicity 1
 C         3.841397         1.639582         2.722330
 C         3.109061         0.984786         1.600822
 O         3.433844        -0.512109         1.323127
 C         2.561645        -0.340246         0.231410
 C         2.668937         1.143976         0.206818
 C         1.616740         1.017599         1.353695
 C         1.113197        -0.205060         0.874054
 C         0.073762        -0.061601        -0.190909
 O         0.653960        -1.178719         1.791320
 H         3.497080         1.213850         3.695269
 H         4.886810         1.401268         2.705618
 H         3.569629         2.666548         2.727788
 H         2.707992        -1.093126        -0.668482
 H         2.808007         1.834793        -0.585831
 H         0.906225         1.884350         1.692536
 H        -0.874606         0.208142         0.350877
 H         0.229832         0.899628        -0.792503
 H         0.052495        -0.931597        -0.752968
 H         1.411030        -1.444799         2.302350
