19
Iteration:  4265
 C         3.848439         1.724511         2.630078
 C         2.989786         0.977686         1.693645
 O         3.403658        -0.376529         1.452720
 C         2.637987        -0.334385         0.255966
 C         2.538913         1.199469         0.283937
 C         1.536884         1.086284         1.500744
 C         1.099299        -0.254045         0.840970
 C         0.137325        -0.060941        -0.284903
 O         0.778165        -1.453115         1.621825
 H         3.571340         2.164253         3.542441
 H         4.721701         0.991673         2.788247
 H         4.378377         2.531682         2.086882
 H         3.045133        -1.022198        -0.515172
 H         2.741813         1.957768        -0.473297
 H         0.733074         1.801267         1.863139
 H         0.239069         0.699230        -0.978286
 H         0.167256        -1.001006        -0.854733
 H        -0.912495         0.145620         0.031187
 H         1.353625        -1.326871         2.361272
