19
Iteration:  1005charge 0 multiplicity 1
 C         3.919519         1.581563         2.709741
 C         3.125716         0.961054         1.586957
 O         3.397228        -0.478909         1.363381
 C         2.556825        -0.435166         0.229885
 C         2.606820         1.221585         0.255206
 C         1.563341         1.128645         1.349353
 C         1.119869        -0.200560         0.857519
 C         0.092544        -0.083040        -0.233489
 O         0.673519        -1.214919         1.776788
 H         3.736241         1.067208         3.633179
 H         4.933316         1.653110         2.681427
 H         3.446005         2.579070         2.800734
 H         2.983691        -1.180500        -0.442267
 H         2.761119         1.990402        -0.580415
 H         0.945336         1.951319         1.656368
 H        -0.897587         0.363928         0.140471
 H         0.407800         0.640525        -0.973736
 H        -0.189520        -1.014129        -0.553381
 H         1.340078        -1.305207         2.416939
