19
Iteration:  4555charge 0 multiplicity 1
 C         3.863335         1.659464         2.664533
 C         3.035493         0.991209         1.655401
 O         3.424479        -0.419948         1.450205
 C         2.547611        -0.411122         0.318400
 C         2.578563         1.281247         0.279479
 C         1.491937         1.159476         1.374385
 C         1.160193        -0.292742         0.857499
 C         0.238663        -0.143802        -0.311039
 O         0.656387        -1.308603         1.692769
 H         4.917184         1.220659         2.381978
 H         3.873597         2.772693         2.461214
 H         3.566564         1.319611         3.661772
 H         2.881799        -1.092548        -0.471593
 H         2.623940         2.052735        -0.529414
 H         0.967054         2.032240         1.674796
 H         0.715449         0.554873        -1.047112
 H        -0.115260        -1.086409        -0.766297
 H        -0.650547         0.259733         0.053632
 H         1.346361        -1.566625         2.321007
