19
Iteration:  2556
 C         3.996757         1.710840         2.659799
 C         3.051080         0.918173         1.704766
 O         3.422977        -0.420680         1.486773
 C         2.602968        -0.277626         0.230024
 C         2.521357         1.207221         0.332237
 C         1.524829         1.094041         1.442705
 C         1.143777        -0.275493         0.820895
 C         0.042971        -0.072196        -0.252579
 O         0.705535        -1.361376         1.579498
 H         4.062645         1.123051         3.588152
 H         5.001783         1.755971         2.316254
 H         3.554365         2.691776         2.761870
 H         2.899079        -1.107483        -0.504105
 H         2.722055         1.906242        -0.524098
 H         1.001750         1.957231         1.743368
 H         0.230167         0.688422        -0.915400
 H        -0.292256        -0.975972        -0.784456
 H        -0.921127         0.339084         0.284800
 H         1.493364        -1.791677         1.809180
