19
Iteration:  1269
 C         3.764888         1.492224         2.831383
 C         3.087799         0.810753         1.621768
 O         3.385244        -0.558462         1.247550
 C         2.521979        -0.311752         0.121520
 C         2.789435         1.304950         0.233047
 C         1.613620         1.192387         1.301360
 C         1.037564        -0.164485         0.824471
 C        -0.072156        -0.285045        -0.151303
 O         0.859718        -1.023739         1.857369
 H         3.136224         1.483075         3.713005
 H         4.873333         1.238713         2.921498
 H         3.664688         2.547311         2.587152
 H         2.624134        -1.123195        -0.650043
 H         3.434627         2.104219        -0.265210
 H         1.131901         2.228363         1.744733
 H        -1.067110        -0.217616         0.329733
 H        -0.037136         0.588827        -0.831432
 H         0.155691        -1.146628        -0.819784
 H         1.662552        -1.119980         2.286613
