19
Iteration:  2147
 C         3.816063         1.514909         2.840278
 C         3.123043         0.977860         1.605457
 O         3.344844        -0.494594         1.412614
 C         2.557545        -0.327119         0.202955
 C         2.706208         1.243471         0.248552
 C         1.578580         1.200762         1.239690
 C         1.136870        -0.179416         0.775956
 C        -0.089858        -0.194715        -0.198848
 O         0.886942        -1.184977         1.740402
 H         3.354777         1.014712         3.706941
 H         4.913009         1.429312         2.830154
 H         3.536675         2.508955         2.996042
 H         2.730780        -1.138385        -0.557984
 H         2.920651         2.012720        -0.410679
 H         0.940242         2.052074         1.698406
 H        -0.059506         0.637504        -0.914690
 H        -0.272808        -1.152491        -0.734443
 H        -1.008229        -0.079964         0.382641
 H         1.715773        -1.499881         2.069149
