19
Iteration:  2949
 C         4.023617         1.762088         2.520482
 C         3.094454         0.952826         1.687908
 O         3.448592        -0.479984         1.542972
 C         2.521413        -0.339619         0.228007
 C         2.496924         1.207229         0.381560
 C         1.558633         1.056534         1.552824
 C         1.091329        -0.272319         0.785146
 C         0.021697        -0.027590        -0.302578
 O         0.730433        -1.367065         1.552383
 H         3.775483         1.517964         3.549197
 H         5.019507         1.314647         2.382873
 H         3.893781         2.804159         2.422849
 H         2.952221        -0.995362        -0.496832
 H         2.521274         2.081967        -0.164718
 H         1.024682         1.944689         1.941309
 H         0.300299         0.763700        -0.908336
 H         0.162450        -0.829244        -0.971810
 H        -1.005042         0.057533         0.223531
 H         1.207090        -1.449151         2.342727
