19
Iteration:  2393charge 0 multiplicity 1
 C         3.721511         1.491419         2.885033
 C         3.019373         0.918300         1.710663
 O         3.406795        -0.497006         1.272042
 C         2.573670        -0.215253         0.068328
 C         2.780773         1.254017         0.271443
 C         1.633467         1.182052         1.269637
 C         1.070923        -0.235725         0.761615
 C        -0.088910        -0.301321        -0.204856
 O         0.904861        -1.104207         1.819680
 H         3.180875         1.192682         3.822054
 H         4.755424         1.238991         3.064809
 H         3.776589         2.564914         2.702013
 H         2.699434        -0.863002        -0.865619
 H         2.946508         2.171566        -0.256734
 H         1.156521         2.142654         1.668396
 H         0.048656         0.237438        -1.059647
 H        -0.349932        -1.379480        -0.309397
 H        -1.000194         0.136678         0.405420
 H         1.691498        -1.206456         2.297336
