19
Iteration:  3398
 C         3.981227         1.755619         2.575092
 C         3.063528         0.910621         1.715002
 O         3.524332        -0.404964         1.406080
 C         2.536001        -0.404499         0.345990
 C         2.509210         1.230894         0.384267
 C         1.444112         1.088032         1.505220
 C         1.095358        -0.256193         0.899631
 C         0.163008        -0.027681        -0.384149
 O         0.664131        -1.407416         1.589987
 H         3.803631         1.544488         3.651685
 H         4.987602         1.753340         2.046071
 H         3.671448         2.861132         2.589867
 H         2.772432        -1.057445        -0.516922
 H         2.763134         2.047541        -0.465465
 H         0.883585         1.697675         2.157440
 H         0.632549         0.484273        -1.157126
 H        -0.231287        -0.945726        -0.763147
 H        -0.815737         0.535183        -0.088320
 H         1.420735        -1.755149         2.206063
