19
Iteration:   507charge 0 multiplicity 1
 C         4.075299         1.770943         2.509103
 C         3.095444         0.960248         1.643965
 O         3.478664        -0.443405         1.469670
 C         2.548662        -0.410833         0.259199
 C         2.548094         1.164305         0.269792
 C         1.589385         1.005217         1.526176
 C         1.130151        -0.325236         0.854772
 C         0.112734         0.069784        -0.291079
 O         0.468696        -1.324751         1.706203
 H         3.784365         1.399143         3.516698
 H         5.129856         1.767055         2.159202
 H         3.774024         2.876043         2.582994
 H         2.894121        -1.154333        -0.443461
 H         2.640084         2.044966        -0.333292
 H         0.910510         1.747413         2.082661
 H        -0.877284        -0.292603        -0.074253
 H         0.083199         1.094128        -0.589416
 H         0.477607        -0.550772        -1.200763
 H         1.236600        -1.724572         2.312551
