19
Iteration:  2265charge 0 multiplicity 1
 C         3.961919         1.800231         2.599790
 C         3.074441         0.910785         1.726862
 O         3.390355        -0.427719         1.474237
 C         2.544010        -0.424671         0.299994
 C         2.685522         1.146857         0.273668
 C         1.632892         1.022712         1.449248
 C         1.107258        -0.226778         0.783645
 C         0.007969         0.036460        -0.262756
 O         0.658516        -1.356523         1.608765
 H         4.004861         1.384879         3.671574
 H         4.954762         1.844617         2.087497
 H         3.518750         2.743723         2.848245
 H         2.807527        -1.115887        -0.532286
 H         2.683448         2.051339        -0.247313
 H         1.025339         1.874803         1.842664
 H         0.300759         0.672998        -1.089335
 H        -0.250662        -0.992104        -0.636374
 H        -0.955872         0.360634         0.293736
 H         1.374731        -1.734585         2.074704
