19
Iteration:  2104charge 0 multiplicity 1
 C         3.901413         1.843271         2.633161
 C         3.145628         0.871006         1.673778
 O         3.459657        -0.543994         1.335473
 C         2.541552        -0.346482         0.259493
 C         2.602187         1.276647         0.349440
 C         1.594317         0.985185         1.435004
 C         1.083595        -0.324491         0.843341
 C         0.130308         0.008482        -0.237710
 O         0.590379        -1.346024         1.676757
 H         3.988990         1.330633         3.575758
 H         4.861961         2.196742         2.248392
 H         3.256618         2.603630         2.889271
 H         2.947364        -0.859664        -0.671442
 H         2.803047         2.096180        -0.248788
 H         0.828687         1.787802         1.827087
 H         0.646737         0.628110        -0.955981
 H        -0.216304        -0.831383        -0.841728
 H        -0.720388         0.510264         0.103392
 H         1.227330        -1.265107         2.485085
