19
Iteration:   989charge 0 multiplicity 1
 C         3.944412         1.678406         2.628730
 C         3.033698         0.897877         1.723515
 O         3.414034        -0.466659         1.432328
 C         2.494969        -0.339689         0.236141
 C         2.632187         1.147886         0.245635
 C         1.613487         1.121714         1.404884
 C         1.060471        -0.247184         0.856494
 C         0.071785        -0.040319        -0.293189
 O         0.721702        -1.283173         1.723356
 H         4.016786         1.189918         3.651622
 H         4.977420         1.551694         2.046352
 H         3.660237         2.713988         2.843702
 H         2.491792        -1.083278        -0.633008
 H         2.979687         1.907608        -0.388135
 H         1.007004         1.967376         1.882511
 H        -0.692482         0.651043        -0.032027
 H         0.557156         0.409275        -1.235747
 H        -0.315220        -1.088392        -0.692725
 H         1.344810        -1.116114         2.530000
