19
Iteration:  1752
 C         3.885489         1.418903         2.837676
 C         3.050453         0.957942         1.641108
 O         3.284440        -0.493289         1.349000
 C         2.548054        -0.247508         0.128573
 C         2.747113         1.297759         0.248028
 C         1.546150         1.246413         1.218550
 C         1.057411        -0.171318         0.837562
 C        -0.035489        -0.210508        -0.203256
 O         0.894397        -1.217488         1.828606
 H         3.798434         0.729381         3.673093
 H         4.918615         1.418044         2.685149
 H         3.503622         2.362411         3.312572
 H         2.659925        -0.939328        -0.673139
 H         3.030601         2.202477        -0.369114
 H         1.080902         2.248442         1.665740
 H         0.166212         0.336033        -1.100079
 H         0.000774        -1.295624        -0.608605
 H        -1.082707        -0.016470         0.187439
 H         1.884221        -1.431947         1.971267
