19
Iteration:  2580
 C         3.818260         1.686621         2.804631
 C         3.034965         0.961748         1.637216
 O         3.384710        -0.508015         1.322974
 C         2.505594        -0.328262         0.159851
 C         2.759186         1.310576         0.276406
 C         1.612613         1.125236         1.390099
 C         1.127562        -0.265910         0.814201
 C        -0.036231        -0.118182        -0.195054
 O         0.819181        -1.362506         1.691526
 H         3.421964         1.167418         3.691280
 H         4.894074         1.540917         2.828983
 H         3.614283         2.699624         2.676682
 H         2.771964        -1.060369        -0.627941
 H         3.000117         2.128920        -0.327972
 H         1.137999         1.858436         1.996349
 H         0.283350         0.681371        -0.924696
 H        -0.399260        -1.008797        -0.702398
 H        -0.983569         0.360298         0.173088
 H         1.550669        -1.173742         2.415689
