19
Iteration:   479charge 0 multiplicity 1
 C         3.999542         1.735915         2.576022
 C         3.126177         0.898638         1.676707
 O         3.499840        -0.424865         1.397963
 C         2.480325        -0.368811         0.313741
 C         2.584636         1.126132         0.275510
 C         1.610850         1.060351         1.423963
 C         1.102543        -0.274983         0.881122
 C         0.096699        -0.016676        -0.248024
 O         0.546473        -1.282749         1.666717
 H         3.869612         1.325023         3.572600
 H         5.027226         1.736782         2.140589
 H         3.645701         2.771346         2.717312
 H         2.730469        -1.127298        -0.424984
 H         2.617112         1.882164        -0.502256
 H         1.054412         1.918524         1.964132
 H        -0.919407        -0.337812         0.089766
 H        -0.100983         1.025550        -0.593432
 H         0.526591        -0.499941        -1.110175
 H         1.211298        -1.568731         2.409693
