19
Iteration:  3460
 C         3.896745         1.682145         2.666232
 C         3.066699         0.913174         1.729438
 O         3.529549        -0.421629         1.480378
 C         2.537784        -0.340523         0.217158
 C         2.604622         1.212399         0.305571
 C         1.517104         1.131226         1.421859
 C         1.085970        -0.248014         0.819426
 C        -0.011126        -0.143643        -0.325761
 O         0.742594        -1.305124         1.622846
 H         4.293292         0.971864         3.325102
 H         4.808241         2.096943         2.321925
 H         3.310341         2.479035         3.135185
 H         2.863652        -0.910643        -0.701670
 H         2.994603         2.045879        -0.336445
 H         0.959958         2.003208         1.775619
 H         0.090350         0.657644        -1.025155
 H        -0.087144        -1.112454        -0.813500
 H        -0.943249        -0.001138         0.334847
 H         1.397552        -1.351454         2.411460
