19
Iteration:   532charge 0 multiplicity 1
 C         4.041582         1.761880         2.522331
 C         3.051317         0.892470         1.741388
 O         3.465090        -0.581765         1.416085
 C         2.521864        -0.372335         0.285624
 C         2.641984         1.183685         0.354648
 C         1.558134         1.175710         1.492120
 C         1.065529        -0.220321         0.856663
 C         0.059680        -0.050983        -0.265516
 O         0.607607        -1.325220         1.629473
 H         3.999759         1.650372         3.562877
 H         5.070549         1.837830         2.031267
 H         3.576917         2.789367         2.309544
 H         2.746281        -1.035995        -0.555754
 H         2.919807         1.984607        -0.351660
 H         0.949951         2.151726         1.884357
 H        -0.978705        -0.318107         0.102829
 H         0.141217         0.969880        -0.679978
 H         0.184823        -0.832935        -1.101784
 H         1.355710        -1.403332         2.313884
