19
Iteration:  3575charge 0 multiplicity 1
 C         3.850545         1.605025         2.703608
 C         3.026952         0.915829         1.652301
 O         3.450701        -0.405665         1.379067
 C         2.502270        -0.337643         0.240442
 C         2.602028         1.322194         0.342862
 C         1.525642         1.110959         1.401266
 C         1.057345        -0.222951         0.794138
 C         0.009982        -0.210015        -0.306364
 O         0.899804        -1.252648         1.712003
 H         3.353653         1.558348         3.766025
 H         4.629562         0.829044         3.060444
 H         4.380666         2.507227         2.390950
 H         2.903065        -1.040085        -0.463832
 H         2.942653         1.964491        -0.398696
 H         0.930178         1.975812         1.786021
 H         0.318814         0.425761        -1.256052
 H        -0.246905        -1.254565        -0.629031
 H        -0.837508         0.263651         0.038368
 H         1.535639        -1.158734         2.393667
