19
Iteration:  3450
 C         3.940676         1.721577         2.581473
 C         3.001616         0.911998         1.685505
 O         3.496652        -0.443618         1.450220
 C         2.567764        -0.282089         0.301394
 C         2.610689         1.232033         0.384196
 C         1.517401         1.079653         1.458801
 C         1.094581        -0.192315         0.799418
 C         0.112679        -0.171850        -0.246116
 O         0.670482        -1.342328         1.549789
 H         4.269610         1.032364         3.328233
 H         4.769324         2.128854         1.977282
 H         3.426703         2.518087         3.184074
 H         2.750775        -0.943811        -0.599284
 H         3.129184         1.987445        -0.304294
 H         0.789481         1.778444         1.820806
 H         0.276365         0.558048        -0.938523
 H        -0.036367        -1.151497        -0.622249
 H        -0.945922         0.158792         0.219553
 H         1.166398        -1.347403         2.442138
