19
Iteration:  3281
 C         3.780945         1.483723         2.890969
 C         3.045458         0.959405         1.654723
 O         3.556161        -0.443140         1.273871
 C         2.565071        -0.292294         0.209338
 C         2.639158         1.247790         0.241071
 C         1.543152         1.168174         1.274979
 C         1.101147        -0.154765         0.777236
 C        -0.002095        -0.282610        -0.237954
 O         0.768291        -1.111358         1.819889
 H         3.587090         0.782651         3.710543
 H         4.772893         1.646602         2.539336
 H         3.421873         2.410973         3.276797
 H         2.699682        -0.943870        -0.652762
 H         3.215046         1.890344        -0.535365
 H         0.968313         1.865765         1.797992
 H         0.042135         0.448622        -1.223670
 H        -0.126544        -1.386573        -0.533780
 H        -0.934672        -0.073196         0.240318
 H         1.508906        -1.575089         2.238941
