19
Iteration:   592
 C         3.813465         1.431311         2.831011
 C         3.124330         1.027693         1.593850
 O         3.411491        -0.461245         1.373484
 C         2.489983        -0.364846         0.207195
 C         2.683372         1.267177         0.155128
 C         1.530604         1.159130         1.218022
 C         1.078123        -0.227381         0.765742
 C        -0.056068        -0.142593        -0.095774
 O         0.870306        -1.163051         1.792759
 H         3.488564         0.987737         3.836971
 H         4.859155         1.294442         2.756339
 H         3.676277         2.499510         2.952048
 H         2.862702        -1.104271        -0.492495
 H         3.184149         1.960808        -0.515241
 H         0.965550         1.890101         1.691522
 H        -0.707298         0.633876         0.316210
 H         0.224867         0.216767        -1.120585
 H        -0.371177        -1.168557        -0.272666
 H         1.756621        -1.287294         2.166602
