19
Iteration:  4550charge 0 multiplicity 1
 C         3.901644         1.685001         2.641344
 C         3.041895         1.035747         1.687406
 O         3.399190        -0.414689         1.436560
 C         2.562623        -0.387417         0.330753
 C         2.613748         1.278021         0.327823
 C         1.499235         1.144898         1.365705
 C         1.137246        -0.338614         0.821957
 C         0.180537        -0.145007        -0.320467
 O         0.647576        -1.347697         1.677917
 H         4.772316         1.226293         2.332309
 H         4.020335         2.699103         2.341164
 H         3.540089         1.480889         3.655871
 H         2.904408        -1.177200        -0.364985
 H         2.831352         2.048230        -0.380642
 H         1.076003         2.094628         1.843104
 H         0.713805         0.510938        -1.046050
 H         0.029920        -1.129644        -0.783456
 H        -0.815846         0.364225        -0.002583
 H         1.343251        -1.457795         2.408561
