19
Iteration:  3881charge 0 multiplicity 1
 C         3.959869         1.799779         2.568031
 C         3.074979         0.973453         1.713897
 O         3.420706        -0.422623         1.421803
 C         2.530712        -0.346172         0.298243
 C         2.570199         1.231568         0.387953
 C         1.500636         1.030187         1.529037
 C         1.092544        -0.306266         0.818394
 C         0.134979        -0.060445        -0.386304
 O         0.698419        -1.416072         1.672401
 H         3.989045         1.150058         3.501874
 H         4.986646         1.921058         2.180471
 H         3.553631         2.825557         2.654655
 H         2.668890        -0.979439        -0.570390
 H         2.747680         1.941141        -0.372864
 H         0.762994         1.812625         1.886789
 H         0.846976         0.631700        -1.080859
 H        -0.156337        -1.035850        -0.895427
 H        -0.780443         0.391939        -0.001766
 H         1.517945        -1.377401         2.132132
