19
Iteration:  1786
 C         3.951653         1.676854         2.664204
 C         3.082336         0.867867         1.741381
 O         3.410376        -0.541452         1.397828
 C         2.604565        -0.302517         0.178664
 C         2.717479         1.231557         0.358597
 C         1.531900         1.039173         1.415052
 C         1.073181        -0.202992         0.771387
 C        -0.061621        -0.061714        -0.247269
 O         0.719568        -1.221904         1.664918
 H         3.758154         1.410855         3.699131
 H         4.956651         1.671239         2.391723
 H         3.670951         2.738240         2.458928
 H         2.797895        -1.008700        -0.654746
 H         2.879894         2.127979        -0.308012
 H         1.099902         1.800085         2.062561
 H        -0.279812         0.857779        -0.676178
 H         0.199078        -0.881225        -1.054166
 H        -0.996072        -0.514221         0.191384
 H         1.454736        -1.236191         2.386186
