19
Iteration:   597
 C         3.801439         1.414787         2.866349
 C         3.120661         0.983891         1.577025
 O         3.415218        -0.441087         1.358138
 C         2.516169        -0.348258         0.201027
 C         2.710366         1.254577         0.121952
 C         1.536669         1.183583         1.239277
 C         1.114654        -0.247534         0.772794
 C        -0.075721        -0.152249        -0.101881
 O         0.862094        -1.132564         1.809555
 H         3.313895         0.950080         3.689615
 H         4.939825         1.299883         2.836194
 H         3.605012         2.534996         2.998778
 H         2.772468        -1.142670        -0.533529
 H         2.993869         2.026864        -0.635219
 H         0.864398         1.999957         1.821467
 H        -0.782292         0.598256         0.294653
 H         0.258754         0.148068        -1.091263
 H        -0.476277        -1.173851        -0.271505
 H         1.800847        -1.387206         2.170186
