19
Iteration:  3789charge 0 multiplicity 1
 C         3.721119         1.585010         2.783479
 C         3.023784         0.914224         1.648428
 O         3.375186        -0.491028         1.379498
 C         2.510656        -0.326323         0.126760
 C         2.658279         1.288920         0.241423
 C         1.587929         1.137215         1.278272
 C         1.153059        -0.192606         0.795438
 C         0.064171        -0.175748        -0.184777
 O         0.880369        -1.207143         1.835972
 H         3.291638         1.130896         3.650217
 H         4.816968         1.357099         2.649910
 H         3.596284         2.652343         2.631171
 H         2.775962        -1.081509        -0.647099
 H         3.124643         2.040058        -0.490745
 H         0.951544         1.835997         1.833852
 H         0.224348         0.634553        -0.773598
 H         0.096970        -0.995904        -0.880549
 H        -0.975508        -0.128353         0.212865
 H         1.795460        -1.305088         2.186279
