19
Iteration:  2747
 C         4.028596         1.893295         2.604144
 C         3.156618         0.938980         1.733047
 O         3.451015        -0.427498         1.423621
 C         2.542483        -0.407174         0.281000
 C         2.596519         1.165297         0.337451
 C         1.573003         1.083103         1.468767
 C         1.136632        -0.324582         0.891799
 C         0.075717         0.094686        -0.294112
 O         0.507748        -1.547162         1.542038
 H         4.049643         1.648648         3.665577
 H         5.059484         1.916557         2.187692
 H         3.701696         2.952613         2.307401
 H         2.784403        -1.184847        -0.455385
 H         2.593930         2.012387        -0.307591
 H         0.992782         1.821196         1.924700
 H         0.589028         1.029682        -0.837535
 H        -0.277067        -0.869272        -0.753471
 H        -0.714998         0.475508         0.316278
 H         0.976441        -1.810665         2.321061
