19
Iteration:   129
 C         3.963954         1.709681         2.671242
 C         3.093246         0.828913         1.661801
 O         3.372498        -0.595729         1.383183
 C         2.506530        -0.396494         0.214234
 C         2.727506         1.188637         0.284293
 C         1.624270         1.176611         1.224086
 C         1.102444        -0.182738         0.817625
 C        -0.067491        -0.141248        -0.219454
 O         0.715187        -1.103822         1.850393
 H         3.839473         1.300767         3.758888
 H         4.976010         1.777014         2.333010
 H         3.518617         2.789406         2.705245
 H         2.757883        -1.110069        -0.596933
 H         3.163930         1.907566        -0.388933
 H         0.934418         1.775120         1.752759
 H         0.327139        -0.061845        -1.257060
 H        -0.653630        -1.061951        -0.155820
 H        -0.828503         0.823453        -0.003372
 H         1.569517        -1.413485         2.356509
