19
Iteration:  4286charge 0 multiplicity 1
 C         3.870253         1.916404         2.611681
 C         3.111038         0.941090         1.683855
 O         3.515911        -0.439256         1.492765
 C         2.536827        -0.364217         0.313177
 C         2.593818         1.213903         0.348430
 C         1.541089         1.009722         1.488452
 C         1.128048        -0.356608         0.736584
 C         0.070338        -0.061852        -0.257851
 O         0.663175        -1.398793         1.567755
 H         3.200568         2.302388         3.369286
 H         4.752270         1.357931         3.060173
 H         4.266412         2.735690         2.018947
 H         2.882844        -1.030263        -0.505162
 H         2.654066         2.045749        -0.356440
 H         0.874499         1.780898         2.015970
 H         0.151358         0.955651        -0.725787
 H         0.045722        -0.761301        -1.147257
 H        -0.931326         0.028268         0.237761
 H         1.437849        -1.861890         2.060455
