19
Iteration:  3149
 C         3.839569         1.669248         2.653778
 C         3.119102         0.881817         1.653481
 O         3.385994        -0.460002         1.359814
 C         2.544047        -0.342902         0.204172
 C         2.676183         1.262452         0.313673
 C         1.529060         1.140179         1.403613
 C         1.131503        -0.282832         0.830257
 C         0.052649        -0.071479        -0.237522
 O         0.728597        -1.328823         1.734586
 H         3.498948         1.391223         3.641789
 H         4.911294         1.423401         2.672269
 H         3.821380         2.779059         2.550139
 H         2.968117        -0.918468        -0.638947
 H         3.041598         2.036818        -0.260944
 H         0.917416         2.005977         1.819346
 H         0.101545         1.014157        -0.730494
 H         0.082399        -0.909651        -0.978242
 H        -0.850705        -0.132130         0.251997
 H         1.381029        -1.418632         2.389144
