19
Iteration:  3153charge 0 multiplicity 1
 C         3.853807         1.717563         2.647482
 C         3.088851         0.862910         1.651585
 O         3.413199        -0.446067         1.377269
 C         2.556626        -0.343690         0.225923
 C         2.675833         1.214646         0.317123
 C         1.535463         1.185526         1.415802
 C         1.094415        -0.286712         0.838586
 C         0.046957        -0.062361        -0.233534
 O         0.725493        -1.356956         1.690126
 H         3.614012         1.357626         3.744189
 H         4.906729         1.357020         2.635942
 H         3.887767         2.782291         2.468149
 H         2.850781        -0.855624        -0.682964
 H         3.116586         2.054955        -0.312494
 H         0.980453         1.963509         1.843984
 H         0.164149         0.937653        -0.764732
 H         0.032589        -0.798541        -1.108376
 H        -0.957616        -0.177834         0.326829
 H         1.373569        -1.498088         2.499477
