19
Iteration:   397charge 0 multiplicity 1
 C         3.780133         1.451624         2.871887
 C         3.147884         0.935067         1.592427
 O         3.373378        -0.454284         1.377912
 C         2.548956        -0.284882         0.107619
 C         2.705669         1.252829         0.146293
 C         1.581749         1.236606         1.237096
 C         1.104437        -0.187455         0.805760
 C        -0.092499        -0.206489        -0.109304
 O         0.859864        -1.188449         1.830994
 H         3.405585         0.988360         3.718905
 H         4.841135         1.173201         2.918315
 H         3.746741         2.538783         2.881570
 H         2.844755        -0.999276        -0.723862
 H         2.869106         2.004640        -0.672326
 H         1.076439         2.010015         1.647826
 H        -0.858514         0.522412         0.163828
 H         0.279762         0.002532        -1.144990
 H        -0.653403        -1.147368        -0.040477
 H         1.817719        -1.435288         2.171512
