19
Iteration:  4371
 C         3.849177         1.580650         2.754141
 C         3.000580         0.959694         1.713690
 O         3.309945        -0.383058         1.411129
 C         2.520116        -0.229037         0.239269
 C         2.681897         1.310268         0.253782
 C         1.485578         1.165107         1.207580
 C         1.161510        -0.286369         0.827764
 C         0.069306        -0.237634        -0.321415
 O         0.878282        -1.300473         1.813959
 H         3.473250         1.481553         3.807828
 H         4.813642         1.004724         2.871231
 H         4.202178         2.587622         2.683905
 H         2.649426        -0.948092        -0.583966
 H         2.974414         2.117567        -0.376302
 H         0.858468         1.874533         1.804111
 H         0.481525         0.317567        -1.303068
 H        -0.146971        -1.347564        -0.569825
 H        -0.884329         0.045325         0.060170
 H         1.759556        -1.606678         1.994896
