19
Iteration:  3097
 C         3.736657         1.409176         2.840023
 C         3.102309         0.902315         1.624892
 O         3.389743        -0.487888         1.334994
 C         2.542400        -0.251177         0.164667
 C         2.807993         1.380284         0.197322
 C         1.519356         1.216348         1.184129
 C         1.089886        -0.191480         0.838108
 C        -0.060699        -0.293167        -0.162074
 O         0.870744        -1.146301         1.819454
 H         3.685482         0.637456         3.702303
 H         4.801643         1.579498         2.611863
 H         3.339327         2.325396         3.301095
 H         2.595065        -0.856146        -0.734200
 H         3.048509         2.251006        -0.285647
 H         0.954043         2.015625         1.736692
 H         0.362418         0.289106        -1.058053
 H        -0.212763        -1.403377        -0.258208
 H        -0.961423         0.185246         0.014700
 H         1.782458        -1.203512         2.333655
