19
Iteration:  4874
 C         3.722526         1.503017         2.919572
 C         3.117904         1.008262         1.615075
 O         3.330255        -0.458181         1.436270
 C         2.610940        -0.438587         0.289616
 C         2.792448         1.119186         0.084652
 C         1.613913         1.183276         1.150607
 C         1.082894        -0.210055         0.744888
 C         0.081361        -0.287971        -0.305012
 O         0.684195        -0.950249         1.913786
 H         3.997606         0.672649         3.436592
 H         4.590263         2.121197         2.706418
 H         3.060911         2.188776         3.458704
 H         2.804765        -1.174256        -0.514248
 H         3.113349         1.857716        -0.723899
 H         1.212926         2.087518         1.551635
 H         0.521643         0.084621        -1.204092
 H        -0.207322        -1.409333        -0.531593
 H        -0.741978         0.491153        -0.083973
 H         1.562822        -1.166014         2.400008
