19
Iteration:  2505
 C         4.029025         1.880653         2.565381
 C         3.139722         0.925322         1.705482
 O         3.436932        -0.565041         1.396642
 C         2.519917        -0.298780         0.323707
 C         2.494915         1.237873         0.461184
 C         1.556476         1.124729         1.573357
 C         1.070206        -0.345503         0.846739
 C         0.165851        -0.075570        -0.387518
 O         0.592926        -1.412917         1.568676
 H         4.544449         1.248846         3.333271
 H         4.916467         2.138410         1.876790
 H         3.472682         2.757627         2.933758
 H         2.762009        -0.847552        -0.570633
 H         2.745273         2.017559        -0.246073
 H         0.907193         1.760475         2.079607
 H         0.326049         0.950522        -0.917596
 H         0.372043        -0.836363        -1.144562
 H        -0.897401        -0.008161        -0.165938
 H         1.068317        -1.198204         2.406207
