19
Iteration:  4713
 C         3.859300         1.908321         2.652032
 C         3.060385         0.889980         1.777760
 O         3.563001        -0.533963         1.382800
 C         2.578091        -0.413298         0.294784
 C         2.698791         1.124129         0.373034
 C         1.621736         1.104977         1.374099
 C         1.041645        -0.240592         0.872474
 C         0.171112        -0.144886        -0.444834
 O         0.411863        -1.236159         1.733713
 H         3.355778         2.726290         3.235747
 H         4.655002         1.451869         3.355004
 H         4.672870         2.327930         1.892974
 H         2.876044        -1.066394        -0.562115
 H         3.034269         1.949601        -0.307915
 H         0.933047         1.817453         1.760473
 H         0.598472         0.475418        -1.268370
 H        -0.031044        -1.076513        -0.879167
 H        -0.792331         0.303803        -0.114691
 H         1.133138        -1.602718         2.324873
