19
Iteration:  2420
 C         3.676680         1.477170         2.837056
 C         3.055138         0.928814         1.641659
 O         3.323392        -0.569094         1.425255
 C         2.581115        -0.252509         0.129670
 C         2.728030         1.269719         0.181231
 C         1.572989         1.265585         1.266659
 C         1.121254        -0.149870         0.762084
 C        -0.095629        -0.194483        -0.127944
 O         1.024694        -1.210210         1.732273
 H         3.021166         1.251353         3.688607
 H         4.739666         1.194834         3.152952
 H         3.826750         2.574497         2.630621
 H         2.823200        -0.920326        -0.679256
 H         3.088202         2.128696        -0.426098
 H         1.002590         1.976156         1.850516
 H         0.078233         0.369066        -1.160586
 H        -0.365133        -1.249557        -0.131771
 H        -0.934132         0.159945         0.378142
 H         1.895360        -1.411987         1.972309
