19
Iteration:  1380
 C         4.009500         1.817923         2.450699
 C         3.074964         0.817616         1.754145
 O         3.389557        -0.535404         1.486408
 C         2.551027        -0.390714         0.262983
 C         2.631008         1.154607         0.392957
 C         1.586022         1.133028         1.483725
 C         1.092260        -0.272950         0.812382
 C         0.000718        -0.003071        -0.274749
 O         0.639915        -1.275391         1.636650
 H         4.380312         1.454939         3.431413
 H         4.980634         1.993574         1.839552
 H         3.508184         2.713088         2.661864
 H         2.960481        -1.017248        -0.615907
 H         3.201325         1.858416        -0.160758
 H         1.055405         1.869163         1.965437
 H        -0.789907         0.518462         0.161837
 H         0.224388         0.847756        -0.914382
 H        -0.229979        -0.865826        -0.871788
 H         1.297159        -1.751355         2.040697
