19
Iteration:  3583charge 0 multiplicity 1
 C         3.899015         1.628717         2.718954
 C         3.102989         0.970266         1.729622
 O         3.400831        -0.430665         1.376255
 C         2.493003        -0.270857         0.243527
 C         2.580019         1.216720         0.285346
 C         1.477398         1.074602         1.434936
 C         1.074697        -0.264754         0.804274
 C         0.023988        -0.164184        -0.380410
 O         0.892435        -1.283091         1.722229
 H         3.391955         1.893192         3.611754
 H         4.783736         0.988939         2.901744
 H         4.348752         2.531499         2.388538
 H         2.824883        -0.908339        -0.552853
 H         2.776460         1.967210        -0.428592
 H         0.966914         1.931561         1.972449
 H         0.495196         0.402863        -1.146433
 H        -0.206484        -1.131186        -0.818450
 H        -0.911427         0.256582         0.109635
 H         1.438686        -1.066019         2.437099
