19
Iteration:  2957
 C         4.044586         1.751874         2.492366
 C         3.110147         0.916871         1.734395
 O         3.418068        -0.445023         1.527329
 C         2.574507        -0.336544         0.280244
 C         2.473565         1.272282         0.350048
 C         1.586697         1.052483         1.571639
 C         1.171528        -0.321796         0.768669
 C         0.061591        -0.046943        -0.222740
 O         0.629395        -1.370243         1.499716
 H         3.825784         1.676232         3.594169
 H         5.068822         1.463281         2.427314
 H         4.075352         2.815837         2.344911
 H         2.833465        -1.067820        -0.481433
 H         2.400557         2.091388        -0.364038
 H         0.744093         1.830419         1.796852
 H         0.197661         0.892617        -0.704748
 H         0.125845        -0.912959        -0.936877
 H        -1.069085        -0.015735         0.057926
 H         1.180913        -1.460082         2.225931
