19
Iteration:  1292
 C         3.711266         1.472380         2.841964
 C         3.122035         0.814384         1.600626
 O         3.414657        -0.560225         1.227116
 C         2.539167        -0.265097         0.111959
 C         2.739084         1.283796         0.233700
 C         1.618141         1.178647         1.290279
 C         1.123326        -0.147190         0.750830
 C        -0.052326        -0.237267        -0.172014
 O         0.812501        -1.043401         1.965839
 H         3.087659         1.191091         3.698870
 H         4.810375         1.097345         2.881314
 H         3.638862         2.522886         2.833436
 H         2.867225        -0.746206        -0.882449
 H         2.921964         1.884266        -0.678284
 H         1.141407         2.072068         1.835339
 H        -0.898907         0.148461         0.349880
 H         0.059379         0.308195        -1.173278
 H        -0.046856        -1.339345        -0.437897
 H         1.594485        -0.937962         2.680238
