19
Iteration:  3545charge 0 multiplicity 1
 C         3.782081         1.589926         2.928462
 C         3.041578         0.922620         1.657927
 O         3.334734        -0.462061         1.296057
 C         2.604772        -0.193811         0.084432
 C         2.727281         1.302556         0.251188
 C         1.613031         1.125840         1.282718
 C         1.146542        -0.261281         0.749962
 C        -0.028870        -0.321275        -0.133485
 O         0.827264        -1.168589         1.794298
 H         3.025090         1.552966         3.815443
 H         4.680488         0.957118         2.985139
 H         4.049012         2.688313         2.845670
 H         3.057473        -0.691217        -0.823468
 H         2.958498         1.924245        -0.650040
 H         1.013495         1.956101         1.595041
 H        -0.012002         0.343692        -1.078774
 H        -0.360849        -1.375187        -0.290196
 H        -0.863583         0.154056         0.369462
 H         1.640798        -1.653903         2.014922
