19
Iteration:  3284charge 0 multiplicity 1
 C         3.787612         1.477307         2.896587
 C         3.035795         0.954492         1.654425
 O         3.548508        -0.444361         1.282151
 C         2.568920        -0.291478         0.188624
 C         2.670708         1.240012         0.229811
 C         1.514509         1.162299         1.274343
 C         1.095368        -0.153830         0.785220
 C        -0.016825        -0.267325        -0.263209
 O         0.795467        -1.108030         1.827586
 H         3.516105         0.779704         3.736886
 H         4.832034         1.633709         2.628278
 H         3.391556         2.401073         3.296306
 H         2.741675        -0.966586        -0.642583
 H         3.113328         1.870310        -0.598983
 H         0.985900         1.953458         1.843483
 H        -0.080553         0.447812        -1.147437
 H        -0.070530        -1.370516        -0.434530
 H        -0.940824        -0.148322         0.205211
 H         1.555736        -1.473143         2.249112
