19
Iteration:   825charge 0 multiplicity 1
 C         3.865150         1.436554         2.754388
 C         3.028746         0.894185         1.670551
 O         3.282804        -0.463286         1.439260
 C         2.561647        -0.276094         0.244778
 C         2.778531         1.290100         0.189798
 C         1.600739         1.247019         1.196346
 C         1.078776        -0.183703         0.782491
 C        -0.067827        -0.240771        -0.191652
 O         0.859440        -1.142023         1.794098
 H         3.812704         0.836032         3.629995
 H         4.952282         1.214727         2.459552
 H         3.526387         2.440861         2.928720
 H         2.784390        -1.084358        -0.465351
 H         2.973556         2.147151        -0.497307
 H         1.091071         2.009214         1.642115
 H        -0.894945         0.024828         0.364742
 H        -0.081478         0.465958        -0.981545
 H        -0.012628        -1.329462        -0.651896
 H         1.835067        -1.303399         2.163650
