19
Iteration:   171
 C         3.975927         1.507625         2.814838
 C         3.054221         0.984564         1.606244
 O         3.248126        -0.510016         1.476410
 C         2.508914        -0.382161         0.224385
 C         2.736613         1.214118         0.148276
 C         1.593853         1.268351         1.124985
 C         1.118403        -0.157106         0.750102
 C        -0.061881        -0.208211        -0.117037
 O         0.869919        -1.144095         1.776355
 H         3.768850         0.978940         3.798641
 H         4.926057         1.219394         2.543633
 H         3.752364         2.587243         3.041808
 H         2.649863        -1.277195        -0.468784
 H         3.031363         1.819728        -0.683886
 H         0.944922         1.979852         1.600973
 H         0.069748        -0.651672        -1.080518
 H        -0.828933        -0.689456         0.469959
 H        -0.565575         0.818086        -0.120797
 H         1.665110        -1.302374         2.314509
