19
Iteration:  4237
 C         3.946305         1.655887         2.775199
 C         3.081853         0.968209         1.707468
 O         3.355905        -0.371300         1.393392
 C         2.587633        -0.267334         0.152513
 C         2.597459         1.315586         0.356847
 C         1.488953         1.100896         1.376866
 C         1.022431        -0.265508         0.788843
 C         0.051644        -0.313191        -0.305985
 O         0.833423        -1.297369         1.728274
 H         3.361777         1.827844         3.728822
 H         4.753109         0.977283         2.961705
 H         4.424416         2.607942         2.419031
 H         2.934250        -0.969979        -0.603478
 H         2.965389         2.146293        -0.201454
 H         0.727212         1.752058         1.655172
 H         0.286283         0.351443        -1.269751
 H        -0.160678        -1.301360        -0.719309
 H        -0.930678         0.163250        -0.091499
 H         1.705913        -1.452243         2.042950
