19
Iteration:  4910charge 0 multiplicity 1
 C         3.864401         1.750109         2.661332
 C         3.003940         0.929756         1.689313
 O         3.217809        -0.569811         1.613306
 C         2.616240        -0.423486         0.327020
 C         2.877912         1.126174         0.258821
 C         1.591213         1.163429         1.269489
 C         1.082456        -0.212347         0.719071
 C         0.026768        -0.184936        -0.312023
 O         0.743605        -1.136582         1.674436
 H         4.077713         1.370357         3.710128
 H         4.791193         1.967416         2.131261
 H         3.318433         2.715326         2.799672
 H         2.866273        -1.252749        -0.317204
 H         3.391708         1.753031        -0.399799
 H         1.101388         2.068208         1.688973
 H         0.316681         0.472497        -1.297760
 H        -0.489229        -1.105511        -0.569351
 H        -0.771852         0.411065         0.221477
 H         1.666645        -1.152005         2.163323
