19
Iteration:  4723charge 0 multiplicity 1
 C         3.930894         1.928336         2.573240
 C         3.075942         0.853029         1.825452
 O         3.514783        -0.484664         1.424719
 C         2.606397        -0.445875         0.324512
 C         2.772776         1.121244         0.337363
 C         1.540625         1.071100         1.426219
 C         1.082802        -0.229646         0.810899
 C         0.140531        -0.092621        -0.381061
 O         0.403780        -1.268382         1.659968
 H         3.206986         2.545486         3.157168
 H         4.714199         1.438535         3.271744
 H         4.299469         2.672533         1.750964
 H         2.669209        -1.337043        -0.324285
 H         3.009651         2.053551        -0.192090
 H         1.003125         1.902633         1.876702
 H         0.720488         0.463405        -1.064994
 H         0.059561        -1.127609        -0.688883
 H        -0.902553         0.308905        -0.236328
 H         1.131892        -1.609853         2.186122
