19
Iteration:  3377charge 0 multiplicity 1
 C         3.866800         1.733618         2.654932
 C         3.055463         0.946180         1.689611
 O         3.393411        -0.433186         1.405782
 C         2.608850        -0.265628         0.180536
 C         2.633524         1.245601         0.317097
 C         1.578518         1.028532         1.472856
 C         1.137860        -0.350327         0.840761
 C         0.116564        -0.076636        -0.201135
 O         0.672351        -1.358552         1.617070
 H         3.492272         1.587507         3.684402
 H         4.920228         1.471680         2.391094
 H         3.789540         2.835209         2.532250
 H         2.891737        -0.890312        -0.681559
 H         2.702102         2.146046        -0.431827
 H         0.976407         1.864322         1.686670
 H         0.457726         0.593657        -0.979206
 H        -0.172121        -1.080783        -0.498397
 H        -0.867140         0.328677         0.172242
 H         1.200613        -1.595904         2.388814
