19
Iteration:   263charge 0 multiplicity 1
 C         4.026657         1.746108         2.533505
 C         3.111915         0.944311         1.648059
 O         3.399245        -0.489860         1.496427
 C         2.587340        -0.415457         0.293689
 C         2.553890         1.178772         0.330167
 C         1.575894         1.098104         1.491488
 C         1.138786        -0.259884         0.837028
 C        -0.037136        -0.017982        -0.284341
 O         0.684115        -1.290895         1.651691
 H         4.151314         1.272252         3.502912
 H         5.064484         1.497254         2.128004
 H         3.649942         2.710021         2.718256
 H         2.785556        -1.096848        -0.517882
 H         2.618462         1.888724        -0.464854
 H         0.901372         2.032110         1.788434
 H        -0.875331        -0.790478        -0.070244
 H        -0.303228         1.090486        -0.292908
 H         0.156019        -0.061601        -1.380674
 H         1.442833        -1.606674         2.116948
