19
Iteration:   561charge 0 multiplicity 1
 C         3.964811         1.638207         2.637003
 C         3.057347         0.917821         1.693292
 O         3.279843        -0.532297         1.469676
 C         2.516179        -0.306970         0.184935
 C         2.775320         1.237343         0.269997
 C         1.597523         1.112287         1.442805
 C         1.084430        -0.232346         0.752569
 C        -0.044759        -0.139624        -0.219910
 O         0.775862        -1.224923         1.709644
 H         3.960687         1.476033         3.716737
 H         5.009735         1.689674         2.308503
 H         3.546733         2.671980         2.385517
 H         2.945125        -0.950303        -0.547916
 H         2.847971         2.009277        -0.479274
 H         1.051363         1.983578         1.946826
 H        -0.955863         0.118260         0.252904
 H         0.259373         0.598254        -0.878357
 H        -0.340965        -1.127595        -0.660960
 H         1.783641        -1.344412         2.048118
