19
Iteration:  2366
 C         3.825020         1.485645         2.785512
 C         3.111077         0.943917         1.596751
 O         3.459369        -0.410295         1.308270
 C         2.588852        -0.314406         0.186329
 C         2.628518         1.311773         0.323336
 C         1.553271         1.077180         1.321359
 C         1.096447        -0.272583         0.783890
 C         0.016068        -0.238934        -0.242151
 O         0.739106        -1.089843         1.797864
 H         3.526173         0.934288         3.659685
 H         4.939927         1.422705         2.736238
 H         3.577241         2.556948         2.931778
 H         2.691093        -1.005755        -0.623433
 H         3.029373         2.106004        -0.393883
 H         0.995005         1.677194         1.987329
 H         0.106584         0.588571        -1.084187
 H         0.044431        -1.241293        -0.685076
 H        -0.836350        -0.024559         0.303531
 H         1.336228        -1.180241         2.489343
