19
Iteration:  1744
 C         3.831953         1.384884         2.912407
 C         3.065583         0.940430         1.638536
 O         3.295257        -0.441272         1.303054
 C         2.511212        -0.213836         0.184166
 C         2.738640         1.284774         0.209982
 C         1.577806         1.220343         1.180953
 C         1.035600        -0.126179         0.824343
 C        -0.029867        -0.261350        -0.214663
 O         0.927562        -1.209497         1.850485
 H         3.873821         0.501437         3.624610
 H         4.903715         1.355811         2.592961
 H         3.567321         2.354826         3.354316
 H         2.723581        -0.858954        -0.715163
 H         3.057627         2.087906        -0.525114
 H         1.063267         2.028472         1.581040
 H         0.267589         0.372220        -0.993721
 H        -0.271226        -1.418625        -0.406568
 H        -0.930025         0.302707         0.142970
 H         1.820107        -1.318784         2.143529
