19
Iteration:   714charge 0 multiplicity 1
 C         4.025370         1.720388         2.511751
 C         3.107690         0.965049         1.698988
 O         3.348760        -0.430623         1.529730
 C         2.549470        -0.372792         0.310502
 C         2.607965         1.171966         0.301741
 C         1.567952         1.121992         1.430840
 C         1.097386        -0.283135         0.835074
 C         0.059537         0.028236        -0.212874
 O         0.624470        -1.409087         1.572051
 H         4.165926         1.368468         3.539436
 H         5.013890         1.562674         2.017815
 H         4.002327         2.875409         2.612039
 H         2.943542        -0.876868        -0.524821
 H         2.908861         1.786857        -0.546097
 H         0.975991         1.826444         2.205074
 H        -0.957513         0.142341         0.247208
 H         0.225874         0.836680        -0.923619
 H         0.117334        -1.000543        -0.912554
 H         1.251920        -1.576661         2.234117
