19
Iteration:  1681
 C         3.771108         1.654058         2.810836
 C         3.119088         0.893504         1.685214
 O         3.444340        -0.543394         1.208637
 C         2.529600        -0.280965         0.113184
 C         2.713725         1.234386         0.316741
 C         1.624462         1.128875         1.392776
 C         1.078275        -0.165012         0.799781
 C        -0.058888        -0.102058        -0.180958
 O         0.799109        -1.295707         1.770949
 H         3.628405         1.208310         3.836165
 H         4.919239         1.558305         2.775685
 H         3.304942         2.617287         2.876875
 H         2.774303        -0.945823        -0.789362
 H         3.123434         2.130282        -0.206978
 H         1.057543         1.873937         1.807019
 H         0.156512        -0.045843        -1.298610
 H        -0.619012        -1.006769        -0.208972
 H        -0.727302         0.683953         0.107800
 H         1.576820        -1.270585         2.255192
