19
Iteration:  3837charge 0 multiplicity 1
 C         3.960272         1.920931         2.695505
 C         3.079168         0.957773         1.713028
 O         3.388088        -0.460354         1.488546
 C         2.565672        -0.307949         0.220609
 C         2.769364         1.209156         0.308315
 C         1.538073         1.077205         1.354701
 C         1.127039        -0.379995         0.806932
 C        -0.055734        -0.075218        -0.140255
 O         0.684594        -1.454362         1.527600
 H         3.515421         1.624676         3.651928
 H         4.965858         1.675517         2.530030
 H         3.839774         2.861592         2.207998
 H         3.018544        -0.992302        -0.471853
 H         2.987407         2.065625        -0.206768
 H         0.934209         1.908170         1.738822
 H         0.208869         0.905187        -0.842390
 H        -0.452064        -0.848779        -0.911806
 H        -0.914955         0.040562         0.493449
 H         1.341997        -1.703011         2.131730
