19
Iteration:   345
 C         3.842474         1.607155         2.669109
 C         3.054166         0.871645         1.676782
 O         3.419249        -0.528854         1.277566
 C         2.562462        -0.298272         0.132428
 C         2.667345         1.284554         0.295799
 C         1.621942         1.092166         1.400354
 C         1.081362        -0.234087         0.816548
 C         0.000896        -0.120473        -0.239446
 O         0.750232        -1.211171         1.876027
 H         3.579321         1.088571         3.670577
 H         4.950434         1.731747         2.501005
 H         3.569065         2.712805         2.639587
 H         2.817979        -0.864788        -0.784722
 H         3.052645         2.213500        -0.231914
 H         1.044417         1.867461         1.858114
 H        -0.708128         0.619328        -0.013668
 H         0.403614         0.125583        -1.182445
 H        -0.551604        -1.093488        -0.193738
 H         1.576423        -1.262563         2.346332
