19
Iteration:  2667
 C         3.830933         1.442956         2.788106
 C         3.053666         0.947777         1.653889
 O         3.324681        -0.440451         1.380605
 C         2.499401        -0.331203         0.197236
 C         2.650751         1.325820         0.216333
 C         1.599788         1.199452         1.360472
 C         1.128779        -0.184925         0.746991
 C         0.010293        -0.248692        -0.235862
 O         0.879285        -1.142201         1.750065
 H         3.694365         0.807212         3.680721
 H         4.926805         1.416917         2.623446
 H         3.428925         2.392868         3.077152
 H         2.860092        -1.008257        -0.570065
 H         3.171431         1.959335        -0.479426
 H         1.002705         2.007921         1.920523
 H        -0.062264         0.371402        -1.161771
 H         0.123876        -1.292873        -0.519888
 H        -0.909068        -0.194067         0.391579
 H         1.629544        -1.206632         2.301587
