19
Iteration:  2496charge 0 multiplicity 1
 C         3.978515         1.843991         2.564493
 C         3.156363         0.947007         1.729748
 O         3.446687        -0.547569         1.375184
 C         2.509705        -0.336754         0.302910
 C         2.547423         1.273651         0.368751
 C         1.524782         1.005498         1.592311
 C         1.096252        -0.209693         0.856635
 C         0.142587        -0.075511        -0.382900
 O         0.597493        -1.387390         1.591114
 H         4.260147         1.279222         3.488240
 H         4.942396         2.149518         1.965576
 H         3.532509         2.775059         3.062201
 H         2.663743        -1.064382        -0.446633
 H         2.768099         2.044788        -0.306840
 H         1.027897         1.792767         2.193398
 H         0.377836         0.914696        -1.003051
 H         0.376296        -0.917854        -1.073737
 H        -0.842632        -0.204230        -0.061422
 H         1.127536        -1.462570         2.423449
