19
Iteration:  2384
 C         3.746830         1.470665         2.863923
 C         3.077318         0.891694         1.656839
 O         3.472525        -0.531839         1.312212
 C         2.615712        -0.218539         0.080000
 C         2.690955         1.283347         0.243124
 C         1.592829         1.176791         1.321849
 C         1.097253        -0.175145         0.753730
 C        -0.115422        -0.300726        -0.217408
 O         0.844321        -1.109251         1.846397
 H         3.196884         1.281811         3.863998
 H         4.844213         1.166648         2.841040
 H         3.582285         2.543980         2.818137
 H         3.145075        -0.794827        -0.714557
 H         2.736997         2.197033        -0.406192
 H         1.016970         1.955078         1.784899
 H         0.019493         0.246817        -1.134746
 H        -0.178800        -1.332846        -0.588657
 H        -1.064791         0.147977         0.275231
 H         1.588213        -0.954991         2.380409
