19
Iteration:  2477charge 0 multiplicity 1
 C         3.872357         1.689246         2.640139
 C         3.121087         0.900521         1.714099
 O         3.469956        -0.387939         1.385789
 C         2.540564        -0.313981         0.215314
 C         2.629977         1.197529         0.306824
 C         1.610775         1.070012         1.520222
 C         1.122104        -0.307709         0.851588
 C         0.091750        -0.107960        -0.261083
 O         0.590695        -1.283143         1.644168
 H         3.962043         1.267971         3.618913
 H         4.842510         1.792104         2.167927
 H         3.324034         2.673695         2.800069
 H         2.887802        -0.940003        -0.621795
 H         2.629806         2.038812        -0.313427
 H         0.888536         1.859567         1.994216
 H         0.278323         0.796098        -0.905013
 H         0.229630        -0.917526        -1.011876
 H        -0.912710        -0.062234         0.113592
 H         1.449377        -1.570641         1.922445
