19
Iteration:  3597
 C         4.012784         1.763512         2.725243
 C         3.011842         0.938363         1.665529
 O         3.343528        -0.469049         1.405949
 C         2.561634        -0.321552         0.146241
 C         2.543908         1.296850         0.327762
 C         1.553316         1.071904         1.436262
 C         1.104099        -0.280755         0.816916
 C         0.106721        -0.118093        -0.318877
 O         0.761514        -1.379178         1.746072
 H         3.474433         1.913736         3.762377
 H         4.897559         1.132845         3.077602
 H         4.312372         2.647271         2.152704
 H         2.776108        -0.904586        -0.757691
 H         2.589346         2.064704        -0.415198
 H         0.798580         1.714856         1.900061
 H         0.462616         0.713021        -1.080655
 H         0.027752        -1.095394        -0.871476
 H        -0.839080         0.238934        -0.167597
 H         1.498788        -1.327823         2.467920
