19
Iteration:   549charge 0 multiplicity 1
 C         3.982139         1.783246         2.551135
 C         3.142297         0.857530         1.718644
 O         3.282826        -0.551859         1.464701
 C         2.528255        -0.332639         0.219073
 C         2.658133         1.227687         0.361411
 C         1.621316         1.077650         1.417964
 C         1.083406        -0.192484         0.816927
 C        -0.016831        -0.105669        -0.255801
 O         0.736560        -1.246949         1.665263
 H         3.922420         1.398816         3.629031
 H         4.982035         1.612905         2.204148
 H         3.741367         2.846423         2.570390
 H         2.680457        -0.987947        -0.635258
 H         3.135212         1.973707        -0.249379
 H         1.018196         1.761672         1.915199
 H        -0.914024         0.034419         0.287825
 H        -0.028253         0.672577        -0.996363
 H         0.060909        -1.029303        -0.833316
 H         1.515650        -1.554187         2.165097
