19
Iteration:  2930
 C         3.936266         1.706611         2.631516
 C         3.061247         0.884094         1.755531
 O         3.366611        -0.457935         1.366297
 C         2.518286        -0.285785         0.277136
 C         2.682243         1.255360         0.303168
 C         1.536685         1.099230         1.455467
 C         1.070056        -0.261462         0.818470
 C         0.030418        -0.057702        -0.291704
 O         0.774839        -1.391660         1.695362
 H         3.985330         1.549602         3.709286
 H         5.027742         1.622531         2.322808
 H         3.642005         2.803205         2.527072
 H         2.617307        -0.978617        -0.570583
 H         3.031452         1.881167        -0.511160
 H         0.859464         1.699058         1.961375
 H         0.383828         0.850358        -1.023603
 H        -0.099213        -0.989015        -0.876762
 H        -0.905559         0.308238         0.022730
 H         1.582472        -1.509477         2.147770
