19
Iteration:  4649charge 0 multiplicity 1
 C         3.802475         1.560139         2.887901
 C         3.125522         0.943417         1.690469
 O         3.306359        -0.433752         1.507183
 C         2.576911        -0.379194         0.207386
 C         2.782633         1.244225         0.256419
 C         1.519035         1.228867         1.063880
 C         1.052035        -0.177322         0.795483
 C        -0.057141        -0.282711        -0.295795
 O         0.870808        -1.163584         1.795033
 H         4.027782         2.575010         2.591986
 H         3.149768         1.526743         3.714921
 H         4.713975         0.930875         3.002320
 H         3.061430        -0.954024        -0.602676
 H         3.300350         1.830778        -0.509294
 H         0.842308         2.028847         1.331874
 H         0.187859         0.523245        -1.101808
 H        -0.158708        -1.267133        -0.647535
 H        -1.005908        -0.063899         0.217831
 H         1.840962        -1.479533         1.990082
