19
Iteration:  4495
 C         3.874477         1.808248         2.599414
 C         2.979341         0.901526         1.746418
 O         3.340557        -0.480517         1.540811
 C         2.571699        -0.334252         0.238655
 C         2.761431         1.227569         0.289021
 C         1.553347         1.124317         1.405138
 C         1.159220        -0.230415         0.826031
 C         0.011187        -0.127015        -0.294441
 O         0.733136        -1.383760         1.602347
 H         4.661381         1.281518         2.984010
 H         4.234642         2.558091         1.903465
 H         3.437386         2.462100         3.396281
 H         2.966301        -1.102564        -0.439254
 H         3.363893         1.990834        -0.270922
 H         0.907974         1.907864         1.869398
 H         0.100689         0.739327        -0.911895
 H         0.105931        -1.043212        -0.924577
 H        -1.004240         0.006088         0.291052
 H         1.526724        -1.683026         2.178177
