19
Iteration:  3063charge 0 multiplicity 1
 C         3.831051         1.486090         2.940788
 C         3.033746         0.954019         1.613567
 O         3.426262        -0.472691         1.370964
 C         2.548083        -0.287666         0.164317
 C         2.738000         1.247747         0.179617
 C         1.554650         1.132753         1.326612
 C         1.108728        -0.176514         0.739927
 C        -0.174969        -0.256543        -0.187481
 O         0.915276        -1.082456         1.748164
 H         3.948704         0.621587         3.640364
 H         4.841293         1.765475         2.594773
 H         3.268701         2.353360         3.394925
 H         2.846845        -1.000718        -0.609083
 H         3.080435         2.074011        -0.380269
 H         0.859249         1.999658         1.587477
 H         0.045777         0.049662        -1.293140
 H        -0.469892        -1.305041        -0.407430
 H        -0.945803         0.241338         0.232170
 H         1.807975        -1.370841         2.089290
