19
Iteration:  2863charge 0 multiplicity 1
 C         3.715848         1.395316         2.934623
 C         3.112018         0.955323         1.629581
 O         3.430569        -0.527257         1.265046
 C         2.621172        -0.199095         0.127316
 C         2.715753         1.289585         0.173912
 C         1.567048         1.226594         1.146819
 C         1.163002        -0.155401         0.773559
 C        -0.066430        -0.259579        -0.126143
 O         0.822011        -1.176629         1.892699
 H         3.585945         0.531019         3.636250
 H         4.828615         1.667896         2.869815
 H         3.212063         2.261182         3.331808
 H         2.892960        -0.849758        -0.671212
 H         2.839511         2.003240        -0.608684
 H         0.916814         2.138445         1.392178
 H        -0.104496         0.410289        -1.011701
 H        -0.205308        -1.304794        -0.369806
 H        -0.993699         0.093338         0.388965
 H         1.469317        -0.982813         2.680776
