19
Iteration:  3915charge 0 multiplicity 1
 C         3.841184         1.654273         2.690657
 C         3.051811         0.950697         1.705343
 O         3.454998        -0.429463         1.337589
 C         2.573332        -0.267507         0.196089
 C         2.619687         1.272627         0.356958
 C         1.560305         1.054474         1.468790
 C         1.097369        -0.256363         0.804006
 C         0.127586        -0.272917        -0.279620
 O         0.707041        -1.199690         1.714340
 H         4.116133         0.884338         3.462287
 H         4.712850         1.951361         2.126748
 H         3.244303         2.430738         3.183217
 H         2.699986        -0.895230        -0.693487
 H         2.762514         2.086503        -0.415396
 H         0.880701         1.804111         1.969311
 H         0.318293         0.372584        -1.259153
 H         0.027879        -1.312021        -0.680281
 H        -0.920618         0.133987        -0.040400
 H         1.526130        -1.274948         2.298234
