19
Iteration:   706
 C         4.050640         1.679265         2.563928
 C         3.069412         0.974244         1.690839
 O         3.360299        -0.429823         1.523158
 C         2.533057        -0.356432         0.294544
 C         2.604018         1.144626         0.301491
 C         1.555002         1.176073         1.380160
 C         1.086407        -0.223119         0.865233
 C         0.026879        -0.015858        -0.194639
 O         0.698837        -1.393077         1.551967
 H         4.200529         1.217762         3.504606
 H         5.024881         1.382820         2.034421
 H         3.900833         2.764860         2.606155
 H         2.939508        -1.210462        -0.332639
 H         2.851146         1.875821        -0.436601
 H         0.835809         1.836729         1.904675
 H        -0.953940         0.027831         0.145389
 H         0.145624         0.827530        -0.810468
 H         0.176005        -0.914313        -0.901838
 H         1.236064        -1.453459         2.353775
