19
Iteration:  2689
 C         3.913415         1.651963         2.730288
 C         3.104970         0.936951         1.733383
 O         3.378751        -0.516793         1.372999
 C         2.566119        -0.268595         0.170481
 C         2.695178         1.257383         0.331674
 C         1.543416         1.112206         1.311439
 C         1.036876        -0.246268         0.818693
 C        -0.017417        -0.193988        -0.283281
 O         0.756314        -1.236472         1.768826
 H         4.143931         1.082279         3.661460
 H         4.937718         1.673986         2.253369
 H         3.468760         2.566313         3.056002
 H         2.868639        -0.787256        -0.736125
 H         2.849077         2.164107        -0.298668
 H         0.973886         2.052183         1.758728
 H         0.415759         0.613318        -1.000975
 H        -0.067222        -1.082609        -0.906160
 H        -0.997653         0.197414         0.040689
 H         1.545627        -1.691044         2.239486
