19
Iteration:  3383charge 0 multiplicity 1
 C         3.867969         1.727162         2.614960
 C         3.005531         0.926608         1.730160
 O         3.455148        -0.417254         1.398561
 C         2.581334        -0.297923         0.242006
 C         2.551534         1.252309         0.304832
 C         1.618519         1.068864         1.486852
 C         1.122121        -0.315049         0.825392
 C         0.163294        -0.077300        -0.225436
 O         0.657069        -1.388932         1.602616
 H         3.758152         1.528157         3.693012
 H         4.891115         1.456110         2.358750
 H         3.700936         2.802896         2.398472
 H         2.774294        -1.054713        -0.541461
 H         2.696274         2.075156        -0.264656
 H         0.956414         1.961953         1.757188
 H         0.538289         0.659326        -0.990557
 H        -0.135942        -1.122715        -0.505053
 H        -0.732567         0.489732         0.112212
 H         1.246997        -1.584476         2.303315
