19
Iteration:   572charge 0 multiplicity 1
 C         3.911189         1.575543         2.681380
 C         3.022000         0.900404         1.724666
 O         3.321689        -0.495027         1.426193
 C         2.571819        -0.299226         0.165427
 C         2.755933         1.187541         0.205953
 C         1.567066         1.209085         1.350957
 C         1.102293        -0.235978         0.774418
 C        -0.104292        -0.118073        -0.188928
 O         0.857744        -1.233805         1.759351
 H         3.685300         1.182742         3.690774
 H         4.973820         1.431061         2.450508
 H         3.692906         2.680315         2.798811
 H         2.821893        -1.011130        -0.588927
 H         2.816129         2.042585        -0.448471
 H         0.983300         2.127644         1.712988
 H        -0.862385         0.450397         0.241736
 H         0.159651         0.373955        -1.070555
 H        -0.294158        -1.142125        -0.608865
 H         1.655007        -1.372878         2.373203
