19
Iteration:   367charge 0 multiplicity 1
 C         3.757565         1.494523         2.834189
 C         3.130556         0.897043         1.590977
 O         3.506005        -0.481312         1.258357
 C         2.556723        -0.328585         0.126621
 C         2.695189         1.244827         0.213880
 C         1.542700         1.172783         1.368386
 C         1.095517        -0.214636         0.815484
 C        -0.057438        -0.190148        -0.166137
 O         0.795268        -1.124601         1.837111
 H         3.287105         1.092078         3.715339
 H         4.862302         1.427394         2.819232
 H         3.708751         2.617957         2.769640
 H         2.726749        -0.981521        -0.730282
 H         2.733764         2.018110        -0.579442
 H         1.014935         1.898517         2.018647
 H        -0.599220         0.700590        -0.019036
 H         0.330204        -0.093247        -1.146123
 H        -0.752702        -1.069025        -0.082763
 H         1.639094        -1.089595         2.387296
