19
Iteration:   674charge 0 multiplicity 1
 C         3.987475         1.592326         2.717812
 C         3.085637         0.927400         1.683612
 O         3.288062        -0.491933         1.446450
 C         2.561669        -0.269871         0.146761
 C         2.673387         1.226802         0.256615
 C         1.609043         1.166352         1.331110
 C         1.060470        -0.209462         0.805933
 C        -0.077037        -0.173647        -0.249507
 O         0.799446        -1.211030         1.777414
 H         3.775927         1.038455         3.597799
 H         5.031208         1.546385         2.295080
 H         3.725039         2.634923         2.811137
 H         2.967330        -1.044644        -0.590781
 H         3.003369         1.937037        -0.481031
 H         0.985968         1.824213         1.931532
 H        -1.019895        -0.347949         0.151426
 H         0.042169         0.752609        -0.730806
 H        -0.031189        -1.005296        -0.915206
 H         1.721312        -1.467618         2.130443
