19
Iteration:  4450
 C         3.676455         1.588855         2.863393
 C         3.057404         0.975236         1.633457
 O         3.502691        -0.372591         1.392340
 C         2.585603        -0.446630         0.201176
 C         2.642980         1.202375         0.140419
 C         1.602631         1.083542         1.343803
 C         1.156633        -0.221778         0.759120
 C         0.049675        -0.141419        -0.267747
 O         0.767109        -1.157010         1.821072
 H         4.083165         0.800261         3.370301
 H         4.409441         2.346835         2.494536
 H         2.907007         2.072387         3.463600
 H         2.678851        -1.187005        -0.607231
 H         2.814062         1.859233        -0.756819
 H         0.924150         1.714778         1.849206
 H         0.115216         0.615127        -0.983737
 H         0.105272        -1.173978        -0.746480
 H        -0.908168         0.063913         0.378241
 H         1.718983        -1.377082         2.126870
