19
Iteration:  1626
 C         4.130990         1.695436         2.566564
 C         3.038084         0.968441         1.795259
 O         3.390590        -0.456909         1.468412
 C         2.567220        -0.271084         0.294942
 C         2.580779         1.226167         0.361681
 C         1.465087         1.106278         1.390794
 C         1.072636        -0.303331         0.832889
 C         0.036729        -0.016510        -0.238238
 O         0.707628        -1.480122         1.534143
 H         4.132277         1.573114         3.690094
 H         5.189294         1.458555         2.125530
 H         4.104964         2.774729         2.304868
 H         2.749802        -1.042316        -0.518538
 H         2.645117         2.155072        -0.318783
 H         0.921590         1.807974         1.847097
 H         0.140722         1.193529        -0.365383
 H        -0.066919        -0.609607        -1.163165
 H        -0.981034         0.020769         0.180100
 H         1.304092        -1.482023         2.218173
