19
Iteration:  1999charge 0 multiplicity 1
 C         3.781802         1.620161         2.794200
 C         3.093935         0.919218         1.700648
 O         3.348843        -0.551673         1.287429
 C         2.557700        -0.282206         0.140675
 C         2.730148         1.257454         0.277871
 C         1.607208         1.136252         1.400028
 C         1.100113        -0.197357         0.792101
 C        -0.043470        -0.148424        -0.190599
 O         0.850204        -1.226953         1.761491
 H         3.539575         1.315291         3.802695
 H         4.917267         1.486653         2.757027
 H         3.647845         2.735146         2.530598
 H         2.608185        -0.917582        -0.692244
 H         3.013261         1.950176        -0.453838
 H         1.041120         2.003243         1.762466
 H        -0.219460         0.822891        -0.842469
 H         0.003782        -1.093444        -0.768608
 H        -1.021386        -0.141903         0.385315
 H         1.772900        -1.629910         1.843200
