19
Iteration:   468charge 0 multiplicity 1
 C         3.967879         1.690648         2.561951
 C         3.101952         0.895155         1.690995
 O         3.488153        -0.443650         1.449565
 C         2.499607        -0.413079         0.197229
 C         2.691711         1.229936         0.236260
 C         1.634046         1.117733         1.448329
 C         1.030317        -0.205666         0.892820
 C         0.031152        -0.042694        -0.271226
 O         0.592040        -1.329373         1.722982
 H         4.010891         1.287043         3.589832
 H         5.060233         1.813638         2.406418
 H         3.436429         2.654112         2.535234
 H         2.645884        -1.138962        -0.601877
 H         3.003865         2.044888        -0.410062
 H         0.968377         1.908330         2.003217
 H        -0.911324        -0.572123         0.029725
 H        -0.070000         0.992721        -0.623955
 H         0.234074        -0.738937        -1.069780
 H         1.271404        -1.415109         2.392495
