19
Iteration:   224charge 0 multiplicity 1
 C         3.844464         1.705076         2.667647
 C         3.118506         0.868616         1.672501
 O         3.407049        -0.629369         1.237517
 C         2.517640        -0.330265         0.204177
 C         2.624742         1.194812         0.324238
 C         1.654315         1.140175         1.414620
 C         1.135200        -0.222983         0.848566
 C         0.077370        -0.114405        -0.227556
 O         0.682701        -1.153133         1.815829
 H         3.427644         1.436759         3.632726
 H         4.942374         1.696308         2.494900
 H         3.647677         2.803410         2.457438
 H         2.710673        -0.916675        -0.761465
 H         2.781109         1.974066        -0.388098
 H         1.002010         1.967474         1.727464
 H        -0.345953        -1.081986        -0.415320
 H        -0.747546         0.471161         0.193338
 H         0.494592         0.347000        -1.107907
 H         1.399989        -1.341964         2.548667
