19
Iteration:  1700charge 0 multiplicity 1
 C         3.700534         1.453694         2.857992
 C         3.098273         0.861933         1.642281
 O         3.484059        -0.484056         1.237512
 C         2.566294        -0.234784         0.071178
 C         2.726769         1.349108         0.271499
 C         1.636418         1.129186         1.302982
 C         1.124970        -0.273529         0.799651
 C        -0.089453        -0.175920        -0.144962
 O         0.790744        -1.108458         1.849468
 H         3.684439         0.846872         3.790506
 H         4.765914         1.606225         2.777732
 H         3.144340         2.421996         3.003862
 H         2.888889        -0.805453        -0.817488
 H         2.970450         2.048923        -0.596899
 H         1.021560         1.785816         1.907445
 H         0.243879        -0.144394        -1.128722
 H        -0.706744        -1.176937        -0.017128
 H        -0.762662         0.710898        -0.035391
 H         1.608760        -1.389096         2.198123
