19
Iteration:  2731charge 0 multiplicity 1
 C         3.908950         1.801214         2.484403
 C         3.109088         0.912468         1.687006
 O         3.453728        -0.481751         1.485059
 C         2.547133        -0.370182         0.311198
 C         2.555787         1.209548         0.312969
 C         1.649907         1.003439         1.585933
 C         1.108636        -0.290783         0.857753
 C         0.146209         0.072517        -0.199464
 O         0.585062        -1.421357         1.509911
 H         3.916936         1.459508         3.540454
 H         4.884497         2.003420         2.002830
 H         3.500895         2.793696         2.541862
 H         2.934321        -0.933561        -0.564646
 H         2.653535         1.968743        -0.510836
 H         1.055168         1.916491         2.036043
 H         0.523405         0.667057        -0.970169
 H        -0.092634        -0.784122        -0.806872
 H        -0.892297         0.410052         0.093820
 H         1.000437        -1.389476         2.329992
