19
Iteration:  2267
 C         3.967645         1.803572         2.594574
 C         3.071751         0.913440         1.725721
 O         3.389499        -0.434008         1.484899
 C         2.548561        -0.417084         0.297198
 C         2.693685         1.152558         0.285353
 C         1.624049         1.023326         1.449966
 C         1.116280        -0.243278         0.770148
 C        -0.004148         0.038654        -0.255575
 O         0.651969        -1.363570         1.612150
 H         4.073183         1.395060         3.612696
 H         4.949387         1.894400         2.076405
 H         3.509394         2.744795         2.814256
 H         2.752708        -1.124762        -0.498271
 H         2.721779         2.130270        -0.220672
 H         1.031800         1.834558         1.791904
 H         0.266622         0.724437        -1.147544
 H        -0.224363        -0.971018        -0.661612
 H        -0.892692         0.381856         0.273020
 H         1.347946        -1.774123         2.086477
