19
Iteration:  1268
 C         3.774705         1.495174         2.832253
 C         3.082817         0.809067         1.621602
 O         3.380257        -0.555752         1.251893
 C         2.518884        -0.318536         0.128157
 C         2.788131         1.308511         0.232964
 C         1.616234         1.191719         1.309812
 C         1.042314        -0.163012         0.805752
 C        -0.072511        -0.283666        -0.159653
 O         0.858028        -1.026397         1.858152
 H         3.148859         1.479274         3.710537
 H         4.845066         1.232290         2.912741
 H         3.659258         2.569170         2.579038
 H         2.639834        -1.093988        -0.631925
 H         3.424583         2.081054        -0.305470
 H         1.129086         2.235803         1.734638
 H        -1.061403        -0.211934         0.344995
 H        -0.067384         0.555690        -0.783825
 H         0.170942        -1.095256        -0.778817
 H         1.707338        -1.172526         2.288333
