19
Iteration:  1801charge 0 multiplicity 1
 C         3.931647         1.777458         2.598922
 C         3.134275         0.857711         1.757368
 O         3.452397        -0.524177         1.376873
 C         2.549429        -0.348839         0.219772
 C         2.635343         1.243847         0.366239
 C         1.640087         1.107063         1.469392
 C         1.105858        -0.295316         0.815596
 C        -0.024234        -0.034779        -0.282873
 O         0.592893        -1.352619         1.680024
 H         3.783159         1.713466         3.729585
 H         5.069127         1.548654         2.350012
 H         3.780713         2.841197         2.457690
 H         2.966310        -0.873804        -0.678368
 H         3.027066         2.034534        -0.194322
 H         0.898487         1.850192         1.702014
 H         0.074667         1.129690        -0.419862
 H         0.099391        -0.324333        -1.407922
 H        -0.995411        -0.319079         0.093264
 H         1.312777        -1.536075         2.214015
