19
Iteration:  1146
 C         3.968021         1.763478         2.559899
 C         3.106634         0.850241         1.661229
 O         3.510518        -0.472362         1.363734
 C         2.560514        -0.369626         0.254656
 C         2.554640         1.163406         0.350613
 C         1.546681         1.032760         1.530321
 C         1.132230        -0.282994         0.866314
 C         0.152570        -0.019504        -0.311957
 O         0.519829        -1.275241         1.684380
 H         4.048973         1.423899         3.631841
 H         4.955747         1.916092         2.226200
 H         3.340680         2.741228         2.475495
 H         2.801841        -1.008534        -0.593112
 H         2.744656         2.004581        -0.348896
 H         1.079413         1.846527         2.004058
 H        -0.581809         0.834434         0.078527
 H         0.608550         0.462787        -1.166113
 H        -0.391458        -0.878292        -0.532489
 H         1.064362        -1.310601         2.607283
