19
Iteration:  2378
 C         3.752125         1.485674         2.840117
 C         3.135920         0.854179         1.643988
 O         3.471246        -0.498338         1.325996
 C         2.648583        -0.287154         0.111431
 C         2.628056         1.359685         0.254992
 C         1.556344         1.124026         1.327565
 C         1.125318        -0.152253         0.762808
 C        -0.104205        -0.278029        -0.217820
 O         0.799770        -1.106032         1.835675
 H         3.336785         1.084409         3.731461
 H         4.803657         1.210343         2.786041
 H         3.669820         2.594291         2.869814
 H         3.097032        -0.768563        -0.740192
 H         2.885386         2.041434        -0.583144
 H         0.930184         1.841146         1.889276
 H         0.108965         0.380704        -1.157785
 H        -0.206425        -1.307752        -0.587699
 H        -1.058805        -0.062482         0.151956
 H         1.610508        -0.878054         2.460702
