19
Iteration:  4228
 C         3.892809         1.621594         2.802849
 C         3.048512         0.964312         1.722919
 O         3.391239        -0.402369         1.364505
 C         2.582050        -0.256021         0.175568
 C         2.640703         1.298460         0.313354
 C         1.479173         1.109837         1.425227
 C         1.095644        -0.195747         0.729431
 C        -0.056730        -0.325391        -0.339788
 O         0.855637        -1.248489         1.753280
 H         3.375672         1.755214         3.806013
 H         4.692409         0.941023         2.921703
 H         4.242829         2.535993         2.344007
 H         3.037234        -0.828902        -0.623680
 H         2.904377         2.159595        -0.294538
 H         0.891890         1.887604         1.826312
 H         0.479615         0.112849        -1.349911
 H        -0.026717        -1.448123        -0.378249
 H        -1.050326        -0.086969        -0.018523
 H         1.728031        -1.476565         2.015083
