19
Iteration:  2998charge 0 multiplicity 1
 C         3.968504         1.754268         2.601840
 C         3.150702         0.920942         1.707661
 O         3.498495        -0.477694         1.411860
 C         2.549126        -0.350119         0.296498
 C         2.537216         1.247754         0.365692
 C         1.602233         1.068170         1.499091
 C         1.029203        -0.254754         0.871038
 C         0.028115        -0.030871        -0.339568
 O         0.645837        -1.398959         1.623131
 H         3.707888         1.744837         3.698404
 H         5.052972         1.566271         2.457127
 H         3.548837         2.765815         2.251207
 H         2.865521        -1.033572        -0.524641
 H         2.723350         1.998182        -0.446545
 H         0.942218         1.924057         1.864829
 H         0.218041         1.064181        -0.779574
 H         0.054089        -0.785080        -1.183934
 H        -0.902470         0.049572         0.162304
 H         1.512375        -1.806974         2.005445
