19
Iteration:   705
 C         4.060911         1.670171         2.570597
 C         3.058063         0.973998         1.690014
 O         3.362598        -0.431337         1.523156
 C         2.532270        -0.359978         0.292106
 C         2.606633         1.149580         0.298114
 C         1.556515         1.173484         1.376533
 C         1.087012        -0.214156         0.868234
 C         0.023862        -0.020179        -0.195593
 O         0.709307        -1.390070         1.554403
 H         4.170941         1.194628         3.508564
 H         5.038340         1.388746         2.040931
 H         3.873590         2.788143         2.601220
 H         2.894679        -1.213357        -0.300339
 H         2.841838         1.900349        -0.427279
 H         0.789891         1.902638         1.870725
 H        -0.979118        -0.008237         0.153376
 H         0.161203         0.842523        -0.777811
 H         0.149575        -0.962236        -0.943456
 H         1.214616        -1.431756         2.321388
