19
Iteration:  4209charge 0 multiplicity 1
 C         3.724749         1.572529         2.830189
 C         3.064605         0.885512         1.723629
 O         3.423221        -0.491503         1.334158
 C         2.582448        -0.192302         0.129923
 C         2.651368         1.354416         0.322413
 C         1.566734         1.210114         1.326187
 C         1.084784        -0.191363         0.776008
 C         0.021485        -0.449666        -0.238317
 O         0.899333        -1.135474         1.722472
 H         3.128942         1.308778         3.715263
 H         4.664912         0.954161         2.856413
 H         3.924619         2.581202         2.512668
 H         2.754954        -0.864967        -0.734186
 H         2.974486         2.195632        -0.342017
 H         0.856052         1.882338         1.884082
 H         0.126792         0.062682        -1.214868
 H        -0.400937        -1.462421        -0.426413
 H        -0.818364         0.007718         0.266853
 H         1.695328        -1.161157         2.218915
