19
Iteration:  3216
 C         3.962815         1.766598         2.517115
 C         3.077596         0.889636         1.765480
 O         3.432695        -0.456262         1.460174
 C         2.570134        -0.350144         0.323592
 C         2.621879         1.206004         0.399904
 C         1.500669         1.084367         1.416934
 C         1.109627        -0.219130         0.835649
 C         0.085738         0.016709        -0.272158
 O         0.662724        -1.467366         1.571823
 H         4.113972         1.572423         3.593155
 H         4.873099         1.722024         1.931897
 H         3.601203         2.780696         2.464912
 H         2.709191        -1.055714        -0.493684
 H         2.750132         2.106261        -0.213312
 H         0.815083         1.813459         1.782229
 H         0.437798         0.861271        -0.993173
 H        -0.162770        -0.995723        -0.639115
 H        -0.790892         0.430097         0.003073
 H         1.397413        -1.462415         2.303677
