19
Iteration:  4915
 C         3.900640         1.803626         2.616296
 C         3.014905         0.936334         1.756587
 O         3.178896        -0.576287         1.623115
 C         2.641147        -0.434007         0.297221
 C         2.874134         1.114337         0.259398
 C         1.594573         1.140395         1.306555
 C         1.113484        -0.245411         0.755172
 C        -0.001292        -0.143664        -0.331349
 O         0.724060        -1.143937         1.643764
 H         3.984275         1.519932         3.713669
 H         4.921958         1.920840         2.154333
 H         3.402922         2.764140         2.684178
 H         3.022982        -1.305671        -0.307869
 H         3.308786         1.844867        -0.534887
 H         0.935550         1.935016         1.685404
 H         0.225451         0.530581        -1.103043
 H        -0.320300        -1.176004        -0.619365
 H        -0.725359         0.464682         0.155230
 H         1.550970        -1.304223         2.075877
