19
Iteration:  3535
 C         3.708199         1.583956         2.922345
 C         3.156120         0.938334         1.717108
 O         3.382078        -0.457780         1.324620
 C         2.583526        -0.280917         0.033813
 C         2.723507         1.285178         0.252151
 C         1.616702         1.129613         1.274384
 C         1.136369        -0.233502         0.695623
 C        -0.159691        -0.294467        -0.165147
 O         0.884910        -1.148012         1.822193
 H         3.042973         1.283504         3.764900
 H         4.668835         1.131848         3.100888
 H         3.872559         2.686673         2.941096
 H         2.776822        -0.895882        -0.910946
 H         3.079550         2.057128        -0.542792
 H         0.985488         1.890801         1.660075
 H         0.040311         0.330441        -1.058906
 H        -0.312870        -1.306958        -0.591691
 H        -1.027854        -0.013598         0.507063
 H         1.846028        -1.268882         2.100830
