19
Iteration:  4909charge 0 multiplicity 1
 C         3.858234         1.742035         2.669796
 C         3.005449         0.927267         1.683667
 O         3.225067        -0.567394         1.613357
 C         2.610299        -0.422263         0.329096
 C         2.875223         1.125308         0.259750
 C         1.590537         1.169846         1.262310
 C         1.081316        -0.206081         0.711613
 C         0.030974        -0.183581        -0.313022
 O         0.747631        -1.136987         1.682178
 H         4.080308         1.349758         3.660157
 H         4.769686         1.972804         2.139115
 H         3.313766         2.706804         2.814790
 H         2.845505        -1.241081        -0.333103
 H         3.405922         1.751504        -0.386955
 H         1.131577         2.066941         1.673946
 H         0.317718         0.418106        -1.273862
 H        -0.508012        -1.113589        -0.568273
 H        -0.789604         0.401232         0.222106
 H         1.652865        -1.142414         2.176025
