19
Iteration:  1014charge 0 multiplicity 1
 C         3.861105         1.567840         2.744711
 C         3.192499         0.946023         1.567363
 O         3.425111        -0.470379         1.400573
 C         2.591428        -0.383033         0.198607
 C         2.653880         1.231992         0.204454
 C         1.584105         1.133117         1.304091
 C         1.093894        -0.231848         0.849092
 C         0.062285        -0.136307        -0.205795
 O         0.635797        -1.163457         1.805421
 H         3.477013         0.964272         3.590485
 H         4.934381         1.595311         2.679736
 H         3.494506         2.556530         2.964163
 H         2.734779        -1.160007        -0.673534
 H         2.587059         1.988162        -0.594791
 H         0.998682         1.899806         1.919476
 H        -0.792746         0.195201         0.438530
 H         0.205830         0.665147        -0.977733
 H        -0.106679        -1.005363        -0.730740
 H         1.439691        -1.353911         2.222881
