19
Iteration:  4222
 C         3.823824         1.566490         2.782557
 C         2.959556         0.961121         1.736061
 O         3.432692        -0.457844         1.360532
 C         2.572630        -0.207252         0.196629
 C         2.663996         1.312576         0.310086
 C         1.528741         1.133090         1.405005
 C         1.163501        -0.190184         0.745033
 C        -0.066478        -0.370436        -0.352848
 O         0.866963        -1.196731         1.741272
 H         3.392180         1.782371         3.733535
 H         4.799492         0.984539         2.982700
 H         4.162466         2.612844         2.527997
 H         2.831409        -0.761009        -0.737609
 H         2.762627         2.084191        -0.481737
 H         1.087731         1.980671         2.053135
 H         0.127062        -0.033849        -1.286614
 H        -0.005396        -1.454386        -0.321354
 H        -1.067141        -0.005429        -0.001302
 H         1.780430        -1.440549         2.116989
