19
Iteration:  3689charge 0 multiplicity 1
 C         3.827123         1.705808         2.649340
 C         2.998410         0.883767         1.681192
 O         3.425890        -0.464059         1.479382
 C         2.542032        -0.383413         0.260022
 C         2.625428         1.193361         0.292630
 C         1.569792         1.125109         1.395800
 C         1.122244        -0.241694         0.816019
 C         0.018738        -0.084565        -0.279905
 O         0.844463        -1.251077         1.672280
 H         4.023814         0.994469         3.413935
 H         4.782009         1.954109         2.175129
 H         3.206724         2.565823         3.007109
 H         2.867556        -1.085767        -0.532113
 H         2.926774         1.917031        -0.398836
 H         0.980887         2.006216         1.801632
 H         0.216426         0.743716        -0.850846
 H        -0.083444        -0.956826        -0.861992
 H        -0.977516         0.212915         0.148234
 H         1.701666        -1.557175         1.980568
