19
Iteration:  4886charge 0 multiplicity 1
 C         3.772572         1.580730         2.826274
 C         3.041981         0.934682         1.633410
 O         3.362119        -0.507453         1.547887
 C         2.589715        -0.408822         0.195276
 C         2.812639         1.113870         0.175141
 C         1.634185         1.243913         1.124939
 C         1.072646        -0.153354         0.846555
 C         0.047846        -0.225214        -0.336693
 O         0.719982        -1.055949         1.850300
 H         3.962057         0.809067         3.536039
 H         4.719344         2.059544         2.617929
 H         3.041791         2.206097         3.394801
 H         2.912177        -1.244442        -0.427462
 H         3.074934         1.764391        -0.660462
 H         1.017726         2.095948         1.229066
 H         0.515823         0.111766        -1.324529
 H        -0.377621        -1.317491        -0.411424
 H        -0.960845         0.328457        -0.151150
 H         1.536387        -1.086007         2.339809
