19
Iteration:  4622
 C         3.677877         1.622209         2.832679
 C         2.991409         0.895967         1.751316
 O         3.309894        -0.549539         1.431620
 C         2.682677        -0.326983         0.141447
 C         2.829506         1.183321         0.219659
 C         1.627572         1.213729         1.284183
 C         1.156856        -0.151034         0.722270
 C        -0.084196        -0.353223        -0.200094
 O         0.845634        -1.046388         1.696139
 H         4.263591         2.418171         2.293225
 H         2.949721         2.105209         3.625746
 H         4.317480         0.815318         3.288771
 H         3.087852        -0.910002        -0.693892
 H         3.299544         1.926902        -0.487544
 H         0.948466         1.961910         1.712256
 H        -0.076084         0.359523        -0.974825
 H        -0.322246        -1.423034        -0.548997
 H        -0.817630        -0.055789         0.552343
 H         1.696579        -0.932927         2.253472
