19
Iteration:   647charge 0 multiplicity 1
 C         3.741013         1.513386         2.760074
 C         3.103685         0.857469         1.668503
 O         3.413556        -0.558954         1.231386
 C         2.499216        -0.305333         0.141693
 C         2.724451         1.246174         0.344637
 C         1.607288         1.190894         1.285245
 C         1.142801        -0.155061         0.767516
 C        -0.035885        -0.237135        -0.196346
 O         0.840509        -1.053632         1.871953
 H         3.389559         0.988247         3.724774
 H         4.791891         1.553529         2.519417
 H         3.415621         2.606826         2.826713
 H         2.725921        -0.967521        -0.659348
 H         3.049511         2.017651        -0.358636
 H         1.070749         2.040442         1.815114
 H        -0.928614        -0.048047         0.562380
 H         0.012988         0.546096        -1.061073
 H        -0.215942        -1.337456        -0.586487
 H         1.652757        -1.184717         2.388645
