19
Iteration:  2736charge 0 multiplicity 1
 C         3.950801         1.832137         2.502721
 C         3.110498         0.911333         1.739676
 O         3.438723        -0.459800         1.460194
 C         2.577679        -0.375723         0.307255
 C         2.527100         1.211726         0.296082
 C         1.685302         1.047643         1.558008
 C         1.106752        -0.283176         0.832062
 C         0.141947         0.071067        -0.197579
 O         0.539842        -1.500213         1.521375
 H         3.992809         1.613928         3.576829
 H         4.991248         1.893343         2.122454
 H         3.381803         2.804074         2.524058
 H         2.812882        -1.131122        -0.444806
 H         2.565000         1.970530        -0.475466
 H         1.167952         1.874069         1.982442
 H         0.531337         0.812949        -1.051055
 H        -0.130408        -0.759892        -0.899986
 H        -0.772391         0.494798         0.164524
 H         1.013831        -1.472592         2.424966
