19
Iteration:  2847
 C         3.722298         1.379883         2.871869
 C         3.044836         0.928063         1.601292
 O         3.377594        -0.431716         1.322376
 C         2.579281        -0.305102         0.090317
 C         2.693370         1.286275         0.189743
 C         1.602211         1.203980         1.287441
 C         1.139795        -0.206677         0.799792
 C         0.001691        -0.292265        -0.130326
 O         0.848218        -1.030336         1.817064
 H         3.422348         0.549321         3.547422
 H         4.763668         1.524644         2.685567
 H         3.334575         2.359277         3.241564
 H         2.828791        -0.879609        -0.851396
 H         3.156407         2.025704        -0.526380
 H         1.070871         1.914553         1.913457
 H         0.206686         0.429320        -0.939318
 H        -0.136049        -1.374513        -0.421245
 H        -0.948834        -0.104793         0.465338
 H         1.703539        -1.233272         2.212645
