19
Iteration:  1215charge 0 multiplicity 1
 C         4.016025         1.655344         2.627353
 C         3.034488         0.958160         1.686771
 O         3.364915        -0.439211         1.479074
 C         2.532762        -0.367741         0.273432
 C         2.691809         1.157283         0.273438
 C         1.569003         1.172020         1.332913
 C         1.100287        -0.263584         0.848706
 C         0.002597        -0.013889        -0.268802
 O         0.733497        -1.366455         1.667342
 H         4.055128         1.114066         3.586507
 H         5.038595         1.545826         2.119650
 H         3.695036         2.706716         2.688835
 H         2.682711        -1.164747        -0.478083
 H         2.940017         1.964690        -0.441174
 H         0.895780         2.070768         1.824061
 H        -0.899525         0.205060         0.437815
 H         0.058539         0.993562        -0.846839
 H        -0.204465        -1.013782        -0.874855
 H         1.214318        -1.372965         2.442156
