19
Iteration:  4270charge 0 multiplicity 1
 C         3.856316         1.734133         2.570041
 C         2.996763         0.979671         1.704554
 O         3.423909        -0.350494         1.476006
 C         2.638124        -0.362717         0.235588
 C         2.535300         1.175255         0.306396
 C         1.549610         1.029480         1.516302
 C         1.126337        -0.247310         0.899191
 C         0.089127        -0.059253        -0.305499
 O         0.756194        -1.431505         1.573467
 H         3.440241         2.195358         3.545887
 H         4.658393         1.138447         2.935224
 H         4.338845         2.653517         2.163272
 H         2.928147        -1.107785        -0.494616
 H         2.823525         1.951558        -0.392010
 H         0.864006         1.743921         1.838006
 H         0.384930         0.927965        -0.926680
 H         0.106404        -0.973925        -0.901830
 H        -0.934576         0.028981         0.084280
 H         1.421191        -1.308575         2.325051
