19
Iteration:   259
 C         3.983545         1.724044         2.506495
 C         3.134153         0.942998         1.671968
 O         3.408519        -0.488494         1.465338
 C         2.549549        -0.401443         0.320013
 C         2.594706         1.201269         0.320494
 C         1.594858         1.088948         1.498411
 C         1.125180        -0.258040         0.831597
 C        -0.047453        -0.029990        -0.301252
 O         0.675105        -1.287632         1.680913
 H         4.115317         1.251576         3.539923
 H         4.961827         1.559728         2.249362
 H         3.617266         2.778124         2.628880
 H         2.762753        -1.029790        -0.538936
 H         2.744351         1.925000        -0.525396
 H         1.027713         1.839212         1.862529
 H        -0.836551        -0.706081        -0.198405
 H        -0.318502         0.979793        -0.200505
 H         0.233676        -0.064523        -1.400794
 H         1.551170        -1.597558         2.163251
