19
Iteration:  4696
 C         3.885499         1.753148         2.673126
 C         3.148592         0.925727         1.649598
 O         3.469924        -0.501500         1.460398
 C         2.612968        -0.353204         0.281367
 C         2.630519         1.168701         0.289769
 C         1.522129         1.053551         1.415920
 C         1.127469        -0.296901         0.788807
 C         0.165984        -0.170403        -0.387669
 O         0.505198        -1.128002         1.760485
 H         3.092744         2.462764         2.912861
 H         3.963048         1.161790         3.532937
 H         4.755586         2.244256         2.391290
 H         2.818019        -1.024050        -0.554683
 H         2.799448         1.915433        -0.512918
 H         1.034613         1.912681         1.893709
 H         0.770923         0.480805        -1.101936
 H         0.071256        -1.212702        -0.821917
 H        -0.819697         0.178377        -0.132686
 H         1.205208        -1.280980         2.418803
