19
Iteration:  3791charge 0 multiplicity 1
 C         3.718768         1.587193         2.768106
 C         3.030580         0.917371         1.627230
 O         3.376805        -0.493779         1.398214
 C         2.516370        -0.342395         0.132335
 C         2.654266         1.286207         0.257889
 C         1.577073         1.138152         1.286153
 C         1.147012        -0.181309         0.791095
 C         0.068249        -0.178986        -0.159140
 O         0.889858        -1.207271         1.815257
 H         3.248807         1.171785         3.675011
 H         4.787958         1.409120         2.647085
 H         3.636893         2.634258         2.602339
 H         2.729776        -1.083357        -0.664447
 H         3.125495         2.024264        -0.454277
 H         0.977446         1.796070         1.835983
 H         0.261027         0.724022        -0.828210
 H         0.032256        -0.950590        -0.962901
 H        -0.950616        -0.145271         0.219034
 H         1.752537        -1.341397         2.159896
