19
Iteration:  1178charge 0 multiplicity 1
 C         4.014859         1.845098         2.494585
 C         3.114206         0.872446         1.708240
 O         3.448830        -0.516659         1.426743
 C         2.527025        -0.399680         0.278841
 C         2.642992         1.195918         0.340334
 C         1.566722         1.001082         1.578379
 C         1.109173        -0.261682         0.875586
 C         0.111865        -0.003129        -0.359830
 O         0.534351        -1.307431         1.659869
 H         4.217828         1.642234         3.562993
 H         4.830776         2.164388         1.914364
 H         3.385048         2.773246         2.721484
 H         2.658998        -1.067543        -0.569176
 H         2.774110         2.092126        -0.265695
 H         1.239053         1.813335         2.107492
 H        -0.614099         0.743962         0.176718
 H         0.391610         0.486109        -1.239117
 H        -0.362039        -0.848060        -0.706281
 H         1.117251        -1.891653         2.008638
