19
Iteration:  2766
 C         4.060224         1.841152         2.563659
 C         3.134400         1.004373         1.735485
 O         3.533154        -0.447278         1.480721
 C         2.579816        -0.336148         0.318992
 C         2.571320         1.177024         0.341012
 C         1.548207         0.985083         1.479231
 C         1.017251        -0.323235         0.770505
 C        -0.001865        -0.006292        -0.205925
 O         0.552878        -1.408485         1.538536
 H         3.814985         1.580070         3.591811
 H         5.114383         1.453482         2.531153
 H         3.872917         2.894352         2.434758
 H         2.816939        -0.996936        -0.482755
 H         2.905947         1.828087        -0.524231
 H         0.815865         1.862944         1.787968
 H         0.486162         0.864995        -0.830256
 H        -0.183400        -0.897278        -0.792592
 H        -0.876447         0.443875         0.153857
 H         1.353560        -1.717840         1.876253
