19
Iteration:  2229charge 0 multiplicity 1
 C         3.792585         1.565552         2.749284
 C         3.110867         0.922005         1.638735
 O         3.391827        -0.443309         1.290078
 C         2.502712        -0.365031         0.157615
 C         2.701165         1.311551         0.268414
 C         1.619876         1.125884         1.306329
 C         1.103467        -0.222344         0.899026
 C         0.090477        -0.135205        -0.271685
 O         0.721118        -1.260531         1.851937
 H         3.293476         1.180507         3.664010
 H         4.796711         1.190606         2.903752
 H         3.878478         2.680197         2.588634
 H         2.893152        -1.084422        -0.569525
 H         2.872547         2.204532        -0.327591
 H         0.996281         1.888293         1.774756
 H         0.321616         0.530970        -1.065892
 H        -0.167136        -1.123506        -0.650702
 H        -0.841937         0.307689         0.182325
 H         1.509946        -1.207807         2.339072
