19
Iteration:  2463
 C         3.861504         1.678329         2.755651
 C         3.051433         0.949341         1.641125
 O         3.485163        -0.491683         1.380186
 C         2.642112        -0.303029         0.208832
 C         2.577886         1.279586         0.297587
 C         1.567282         1.075369         1.353559
 C         1.130191        -0.264630         0.789404
 C         0.030317        -0.095963        -0.233522
 O         0.670073        -1.306816         1.719684
 H         3.661443         1.097910         3.691966
 H         5.010348         1.645147         2.623022
 H         3.593653         2.777788         2.836574
 H         2.906208        -0.889508        -0.646852
 H         2.843060         1.971941        -0.487351
 H         1.037856         1.884436         1.789632
 H         0.182742         0.911423        -0.816414
 H        -0.109877        -0.971984        -0.878898
 H        -0.869431         0.080393         0.324169
 H         1.345853        -1.827236         2.298446
