19
Iteration:  2211charge 0 multiplicity 1
 C         3.783088         1.483149         2.856317
 C         3.031065         0.891462         1.694445
 O         3.439347        -0.481122         1.290786
 C         2.610605        -0.260507         0.110269
 C         2.685377         1.260528         0.197803
 C         1.552780         1.097716         1.317202
 C         1.142244        -0.222225         0.782544
 C        -0.069371        -0.248553        -0.241316
 O         0.817278        -1.027869         1.876592
 H         3.291596         1.313966         3.895491
 H         4.791029         0.989115         2.973719
 H         4.009961         2.490026         2.600008
 H         2.757686        -0.892701        -0.812213
 H         2.932348         2.046930        -0.446903
 H         1.058140         1.965883         1.879174
 H         0.330468         0.434403        -1.000793
 H        -0.162190        -1.294846        -0.672316
 H        -1.163178         0.027218         0.112420
 H         1.635377        -1.212606         2.270571
