19
Iteration:  1798
 C         3.950727         1.762593         2.606511
 C         3.112952         0.866252         1.753732
 O         3.451526        -0.538579         1.380277
 C         2.560899        -0.352899         0.195735
 C         2.660574         1.248772         0.385826
 C         1.628627         1.113381         1.460956
 C         1.093448        -0.274112         0.801241
 C        -0.049157        -0.039623        -0.276386
 O         0.616026        -1.326737         1.679306
 H         3.796427         1.657161         3.711931
 H         4.992291         1.542300         2.426333
 H         3.669003         2.801523         2.451735
 H         3.005213        -0.908612        -0.693021
 H         2.982947         2.093965        -0.233384
 H         0.885544         1.753126         1.747590
 H        -0.006949         1.008176        -0.439590
 H         0.182593        -0.450998        -1.410366
 H        -1.048597        -0.337222         0.109305
 H         1.375246        -1.482383         2.333123
