19
Iteration:   985
 C         3.970641         1.691397         2.588613
 C         3.017759         0.906469         1.733504
 O         3.416138        -0.492472         1.468603
 C         2.488480        -0.325465         0.204688
 C         2.664792         1.150127         0.290383
 C         1.580672         1.118828         1.411517
 C         1.032842        -0.217165         0.854783
 C         0.087217        -0.070170        -0.326643
 O         0.722697        -1.302964         1.720979
 H         4.140562         1.243522         3.563202
 H         4.925562         1.579349         2.090372
 H         3.636878         2.769313         2.783160
 H         2.569478        -0.997604        -0.559119
 H         2.940881         1.937869        -0.495933
 H         1.140077         1.830865         2.009241
 H        -0.640924         0.751483        -0.022245
 H         0.494987         0.452375        -1.150402
 H        -0.467226        -1.030267        -0.633815
 H         1.340266        -1.130888         2.390572
