19
Iteration:  4494charge 0 multiplicity 1
 C         3.862047         1.796637         2.606512
 C         2.981588         0.906060         1.737806
 O         3.346042        -0.478527         1.543243
 C         2.566872        -0.323559         0.227856
 C         2.767236         1.219237         0.288963
 C         1.546120         1.127866         1.401043
 C         1.160162        -0.237250         0.828471
 C         0.015650        -0.113499        -0.291483
 O         0.734505        -1.389651         1.612128
 H         4.662496         1.292092         3.006172
 H         4.235243         2.562788         1.889247
 H         3.465091         2.476476         3.401541
 H         2.947290        -1.096933        -0.443432
 H         3.362659         1.977771        -0.307384
 H         0.920081         1.902555         1.841070
 H         0.105216         0.728797        -0.904029
 H         0.112354        -1.047806        -0.938716
 H        -1.013285        -0.004876         0.277017
 H         1.526155        -1.677647         2.192274
