19
Iteration:  3666
 C         3.898834         1.843895         2.640194
 C         3.065939         0.922692         1.671229
 O         3.359180        -0.483265         1.447139
 C         2.595200        -0.335953         0.215858
 C         2.695236         1.233113         0.284187
 C         1.565232         1.108447         1.413791
 C         1.172913        -0.351174         0.821051
 C         0.087844         0.001779        -0.185505
 O         0.650160        -1.446623         1.632877
 H         3.839419         1.414228         3.658202
 H         4.925599         1.867717         2.290101
 H         3.317315         2.816439         2.533253
 H         3.002245        -1.091378        -0.489776
 H         2.874207         1.940426        -0.542424
 H         0.806557         1.788170         1.788421
 H         0.128028         1.002635        -0.542539
 H         0.034232        -0.759058        -0.945365
 H        -0.879504        -0.007315         0.291209
 H         1.242449        -1.442818         2.434358
