19
Iteration:  2277
 C         3.980747         1.810295         2.534644
 C         3.095395         0.960225         1.732238
 O         3.395840        -0.536918         1.548938
 C         2.597362        -0.353410         0.234051
 C         2.702934         1.251420         0.384627
 C         1.542148         1.056798         1.430004
 C         1.142850        -0.341336         0.776944
 C        -0.008291         0.017104        -0.244135
 O         0.592570        -1.387431         1.600722
 H         4.449035         1.305691         3.424162
 H         4.891618         2.194517         1.972267
 H         3.461312         2.736026         2.593059
 H         2.851363        -1.215778        -0.407785
 H         3.060787         2.006781        -0.323586
 H         0.848642         1.847285         1.687376
 H         0.225473         0.874785        -0.971814
 H        -0.375730        -0.851175        -0.866771
 H        -0.852453         0.508349         0.336002
 H         1.397022        -1.706733         2.075160
