19
Iteration:  4770
 C         3.981821         1.767021         2.583045
 C         3.039851         1.020020         1.698765
 O         3.280769        -0.401981         1.608502
 C         2.536495        -0.479700         0.401566
 C         2.785544         1.094008         0.317615
 C         1.528427         1.119485         1.230746
 C         1.084567        -0.296373         0.829545
 C         0.088191         0.008496        -0.334199
 O         0.681059        -1.362362         1.624963
 H         3.706427         1.607118         3.689011
 H         4.902959         1.268138         2.364497
 H         3.969631         2.860206         2.399891
 H         2.892887        -1.309134        -0.209768
 H         3.079418         1.821184        -0.460019
 H         0.830746         1.948100         1.272127
 H         0.649257         0.816279        -0.913429
 H        -0.130318        -0.827706        -0.879721
 H        -0.781357         0.379601         0.088089
 H         1.357649        -1.400320         2.282433
