19
Iteration:   428charge 0 multiplicity 1
 C         3.863041         1.585161         2.756523
 C         3.042209         0.882581         1.680228
 O         3.319579        -0.531108         1.434582
 C         2.524753        -0.363103         0.089415
 C         2.714219         1.221754         0.236518
 C         1.549827         1.169120         1.318939
 C         1.113776        -0.141108         0.738061
 C        -0.086550        -0.166560        -0.149417
 O         0.913202        -1.144740         1.781644
 H         4.029460         1.226140         3.946725
 H         4.899389         1.385274         2.384324
 H         3.613158         2.619452         2.688424
 H         2.791284        -1.204145        -0.621572
 H         3.128899         2.079692        -0.345726
 H         0.951275         1.909739         1.608726
 H        -1.003361         0.111775         0.435837
 H         0.025309         0.623265        -0.987545
 H        -0.177049        -1.124581        -0.656961
 H         1.774296        -1.330296         2.131565
