19
Iteration:  4455charge 0 multiplicity 1
 C         3.687945         1.635941         2.887776
 C         3.091128         0.991890         1.609019
 O         3.450171        -0.384228         1.401525
 C         2.620420        -0.479468         0.226106
 C         2.592309         1.202606         0.115807
 C         1.593166         1.081362         1.362366
 C         1.171377        -0.255430         0.757298
 C         0.039896        -0.093219        -0.280973
 O         0.800535        -1.179712         1.801466
 H         4.379944         0.817036         3.437541
 H         4.424289         2.246810         2.389438
 H         2.889720         2.100006         3.479571
 H         2.613011        -1.378855        -0.434122
 H         2.809792         1.901919        -0.673130
 H         0.853777         1.763307         1.924204
 H         0.122608         0.782337        -1.038705
 H         0.020137        -1.019815        -0.786385
 H        -0.891282        -0.019092         0.221647
 H         1.632837        -1.432481         2.188824
