19
Iteration:   976charge 0 multiplicity 1
 C         4.007120         1.711195         2.520707
 C         3.068470         0.892441         1.719071
 O         3.374548        -0.541953         1.511427
 C         2.501201        -0.336176         0.229196
 C         2.698267         1.220557         0.367430
 C         1.504765         1.106048         1.447890
 C         1.050738        -0.206087         0.813605
 C         0.062605        -0.057058        -0.343473
 O         0.709594        -1.305286         1.702539
 H         4.177541         1.284868         3.530555
 H         5.054882         1.833234         1.992560
 H         3.651271         2.809178         2.557471
 H         2.891042        -0.928341        -0.533484
 H         2.848813         1.964326        -0.456400
 H         1.038831         1.815025         2.047593
 H        -0.703204         0.655829        -0.033841
 H         0.611139         0.289395        -1.233273
 H        -0.662242        -1.006080        -0.526550
 H         1.435740        -1.405459         2.272193
