19
Iteration:  3618
 C         3.916665         1.766947         2.566019
 C         3.045735         0.943866         1.689544
 O         3.456481        -0.408820         1.394941
 C         2.573043        -0.289046         0.307272
 C         2.598642         1.215152         0.385719
 C         1.562424         1.072138         1.474511
 C         1.133246        -0.323012         0.839963
 C         0.136899        -0.128288        -0.255015
 O         0.619672        -1.348604         1.616026
 H         3.461517         1.984397         3.585495
 H         4.863391         1.178101         2.716629
 H         4.099854         2.633229         1.962403
 H         2.670796        -0.928462        -0.545923
 H         2.800737         2.067085        -0.198440
 H         0.899330         1.775483         1.995402
 H         0.243498         0.875068        -0.810112
 H         0.026050        -1.011324        -0.930269
 H        -0.820248         0.055763         0.148310
 H         1.349994        -1.871214         1.893850
