19
Iteration:  1437charge 0 multiplicity 1
 C         3.971217         1.652616         2.641174
 C         3.181861         0.944660         1.589606
 O         3.498111        -0.472063         1.386823
 C         2.498384        -0.385641         0.328503
 C         2.608748         1.222880         0.216663
 C         1.591331         1.095143         1.423791
 C         1.061987        -0.216856         0.921582
 C         0.062892        -0.050215        -0.290007
 O         0.572530        -1.281023         1.732876
 H         3.453191         1.412735         3.591888
 H         4.974947         1.231245         2.611137
 H         4.123862         2.752537         2.429724
 H         2.699988        -1.064512        -0.493009
 H         2.642922         2.044135        -0.567015
 H         1.025071         1.858267         1.921593
 H        -0.797965        -0.580019        -0.022193
 H        -0.051752         1.053532        -0.528159
 H         0.360619        -0.510128        -1.277517
 H         1.135145        -1.566101         2.530524
