19
Iteration:  4970
 C         3.925185         1.862152         2.591309
 C         3.145844         1.008559         1.637626
 O         3.446690        -0.425932         1.569505
 C         2.544778        -0.491233         0.368570
 C         2.587176         1.063685         0.234961
 C         1.610150         1.031296         1.468212
 C         1.074599        -0.270398         0.881974
 C         0.286894        -0.002215        -0.384422
 O         0.427430        -1.295430         1.604980
 H         3.350375         2.242795         3.473859
 H         4.702710         1.146049         3.019615
 H         4.506792         2.654152         2.069105
 H         2.835555        -1.309178        -0.337199
 H         2.678823         1.794023        -0.596392
 H         1.128665         1.945805         1.712380
 H         0.424673         0.902567        -0.847488
 H         0.404331        -0.897337        -1.126301
 H        -0.725621        -0.233306         0.014699
 H         1.017361        -1.393654         2.339249
