19
Iteration:  1537
 C         3.780780         1.500393         2.779711
 C         3.142340         0.918881         1.633680
 O         3.415453        -0.420669         1.389842
 C         2.595875        -0.331891         0.140556
 C         2.652653         1.210973         0.176667
 C         1.678961         1.081263         1.317597
 C         1.135099        -0.253432         0.829329
 C        -0.076424        -0.071642        -0.177766
 O         0.765762        -1.144161         1.780044
 H         3.806320         0.749658         3.641377
 H         4.828961         1.630071         2.510324
 H         3.205176         2.498752         3.058938
 H         2.720303        -1.114371        -0.536044
 H         2.883327         1.911052        -0.552000
 H         0.959103         1.886828         1.754913
 H        -0.928029         0.469817         0.253125
 H         0.248825         0.477657        -1.176859
 H        -0.504480        -1.141259        -0.436743
 H         1.391354        -1.245719         2.450718
