19
Iteration:  4637
 C         3.753175         1.592551         2.843810
 C         3.035029         0.940337         1.679392
 O         3.264117        -0.501573         1.517033
 C         2.594068        -0.338330         0.193012
 C         2.838617         1.271005         0.266887
 C         1.608144         1.172604         1.162288
 C         1.140701        -0.222655         0.626039
 C        -0.125196        -0.292544        -0.247327
 O         0.916733        -1.077624         1.786384
 H         4.267109         2.524911         2.678755
 H         3.100908         1.768193         3.713264
 H         4.566406         0.925169         3.282250
 H         2.833863        -1.178998        -0.482769
 H         3.107576         2.081565        -0.351527
 H         1.092783         2.065331         1.569430
 H        -0.178570         0.268406        -1.193263
 H        -0.114138        -1.309635        -0.562591
 H        -1.073933        -0.101651         0.324031
 H         1.786163        -1.508075         1.963915
