19
Iteration:  4085charge 0 multiplicity 1
 C         4.037282         1.802256         2.517009
 C         3.023447         0.903928         1.805912
 O         3.393565        -0.390777         1.493373
 C         2.568597        -0.271446         0.244116
 C         2.489663         1.236991         0.419572
 C         1.505958         1.082447         1.530038
 C         1.107704        -0.246624         0.801812
 C         0.147364        -0.163392        -0.344667
 O         0.691498        -1.439387         1.564335
 H         4.392300         1.196843         3.416100
 H         4.883390         1.899204         1.846792
 H         3.427628         2.646345         2.897158
 H         3.102797        -0.835866        -0.523735
 H         2.840954         2.147127        -0.143085
 H         0.652611         1.734284         1.876025
 H         0.568136         0.734148        -1.034082
 H         0.036309        -1.155802        -0.866290
 H        -0.922415         0.184792        -0.117560
 H         1.504187        -1.667900         2.131850
