19
Iteration:  2078charge 0 multiplicity 1
 C         3.994779         1.830997         2.461491
 C         3.101045         0.903348         1.718258
 O         3.527256        -0.441287         1.408125
 C         2.543590        -0.348565         0.333343
 C         2.567724         1.142169         0.381769
 C         1.599181         1.026408         1.709591
 C         1.123964        -0.209745         0.928984
 C         0.118883        -0.046350        -0.385906
 O         0.519112        -1.367154         1.509449
 H         4.080558         1.239568         3.449915
 H         4.944838         2.022906         1.976860
 H         3.413097         2.724349         2.875525
 H         2.787628        -0.877033        -0.591203
 H         2.528442         2.039334        -0.337040
 H         0.943465         1.763300         2.053538
 H         0.427488         0.512789        -1.278490
 H        -0.328609        -1.012052        -0.743993
 H        -0.926635         0.439032         0.039797
 H         1.214213        -1.766925         2.192389
