19
Iteration:  3813
 C         3.802846         1.769806         2.704744
 C         3.058726         0.912625         1.706686
 O         3.387307        -0.508765         1.453186
 C         2.577175        -0.331235         0.239413
 C         2.666984         1.171042         0.267626
 C         1.615954         1.111753         1.395204
 C         1.134526        -0.202341         0.741177
 C        -0.084272        -0.053578        -0.194788
 O         0.857614        -1.348433         1.657263
 H         3.211939         1.509877         3.594205
 H         4.861803         1.507743         2.731613
 H         3.747649         2.748895         2.286800
 H         3.010188        -1.045774        -0.464097
 H         2.854038         1.912095        -0.535592
 H         1.074748         1.941520         1.726014
 H        -0.128039         0.848417        -0.907245
 H        -0.198925        -0.903156        -0.925653
 H        -0.977523        -0.173604         0.409177
 H         1.780348        -1.437830         2.085997
