19
Iteration:   698charge 0 multiplicity 1
 C         4.099531         1.630875         2.585775
 C         3.018871         0.973530         1.706417
 O         3.365252        -0.439129         1.520653
 C         2.519478        -0.380119         0.304026
 C         2.631801         1.205939         0.261005
 C         1.529898         1.171081         1.391279
 C         1.089389        -0.192398         0.856253
 C         0.005736        -0.080180        -0.230586
 O         0.751154        -1.364019         1.572169
 H         3.972372         1.141705         3.586946
 H         5.086261         1.539380         2.137487
 H         3.847170         2.642914         2.653351
 H         2.638695        -1.278093        -0.404414
 H         2.821861         2.036257        -0.418775
 H         0.949045         2.000488         1.496251
 H        -0.988359        -0.170939         0.233647
 H         0.203972         0.930231        -0.677190
 H        -0.032238        -0.829158        -0.899732
 H         1.314547        -1.374565         2.405349
