19
Iteration:   422charge 0 multiplicity 1
 C         3.812002         1.547235         2.741897
 C         3.042199         0.893088         1.661530
 O         3.320846        -0.518044         1.408130
 C         2.545252        -0.325236         0.150613
 C         2.746563         1.232601         0.225322
 C         1.565625         1.185689         1.292895
 C         1.107812        -0.193770         0.753310
 C        -0.120387        -0.139456        -0.155246
 O         0.940733        -1.157368         1.790596
 H         3.852869         1.106571         3.642555
 H         4.837116         1.221903         2.497807
 H         3.720090         2.675452         2.785254
 H         2.746459        -1.107289        -0.556992
 H         3.241130         2.046112        -0.282564
 H         0.917833         2.108008         1.675031
 H        -1.037550         0.114406         0.334356
 H         0.093501         0.452438        -1.002399
 H        -0.331238        -1.203896        -0.465646
 H         1.799979        -1.270944         2.233518
