19
Iteration:   467charge 0 multiplicity 1
 C         3.961183         1.683946         2.572621
 C         3.103811         0.899121         1.681850
 O         3.481611        -0.454336         1.450131
 C         2.505243        -0.412469         0.191718
 C         2.696943         1.237566         0.240951
 C         1.636372         1.118017         1.448960
 C         1.032412        -0.196842         0.891052
 C         0.022090        -0.049478        -0.272481
 O         0.598011        -1.331120         1.729479
 H         3.995675         1.311199         3.539524
 H         5.067328         1.828348         2.373007
 H         3.445745         2.685895         2.538420
 H         2.659109        -1.125187        -0.598784
 H         3.031252         2.035328        -0.397999
 H         0.943953         1.950771         2.014277
 H        -0.921235        -0.559276         0.031130
 H        -0.059058         0.967018        -0.602167
 H         0.215172        -0.760472        -1.098202
 H         1.264395        -1.393934         2.360025
