19
Iteration:  2082charge 0 multiplicity 1
 C         3.964766         1.839578         2.515525
 C         3.116516         0.889653         1.721795
 O         3.513776        -0.430682         1.401572
 C         2.537113        -0.363139         0.282751
 C         2.575572         1.148811         0.371924
 C         1.621955         1.019590         1.673562
 C         1.125027        -0.213816         0.938133
 C         0.107582        -0.026040        -0.382749
 O         0.532963        -1.370915         1.534330
 H         4.160047         1.338061         3.471841
 H         4.858810         2.063473         1.938258
 H         3.393246         2.659865         2.771724
 H         2.662824        -1.021440        -0.662421
 H         2.555464         1.944907        -0.305808
 H         0.948562         1.816172         2.277692
 H         0.430363         0.470839        -1.267846
 H        -0.254817        -1.000044        -0.756572
 H        -0.767361         0.423465        -0.001602
 H         1.099033        -1.675456         2.197921
