19
Iteration:  3607charge 0 multiplicity 1
 C         3.960323         1.774503         2.626930
 C         3.085239         0.943348         1.760009
 O         3.360883        -0.462550         1.385534
 C         2.530242        -0.331569         0.169751
 C         2.546819         1.341825         0.310768
 C         1.531433         1.024591         1.436225
 C         1.119601        -0.309211         0.838593
 C         0.149904        -0.099403        -0.275706
 O         0.666806        -1.378222         1.702785
 H         3.463969         2.087119         3.609186
 H         4.910828         1.176094         2.817671
 H         4.345219         2.713538         2.273056
 H         3.016872        -1.001968        -0.504319
 H         2.767018         2.207294        -0.247138
 H         0.923400         1.858147         1.845958
 H         0.607463         0.705587        -0.965510
 H         0.150868        -1.032928        -0.891650
 H        -0.793938         0.037258         0.145247
 H         1.486004        -1.697672         2.192436
