19
Iteration:  1482charge 0 multiplicity 1
 C         3.873607         1.534425         2.701964
 C         3.105216         0.874420         1.672230
 O         3.248181        -0.578445         1.450549
 C         2.558205        -0.338170         0.110482
 C         2.732233         1.247770         0.358752
 C         1.598104         1.214228         1.290221
 C         1.109726        -0.168769         0.705726
 C        -0.116489        -0.196090        -0.190663
 O         0.909649        -1.081497         1.802465
 H         3.384428         1.227088         3.660354
 H         4.909158         1.312160         2.593916
 H         3.896172         2.690801         2.477481
 H         2.776120        -1.027283        -0.645492
 H         3.004698         1.923995        -0.444596
 H         1.051362         1.986566         2.000884
 H        -0.846715        -0.787319         0.249903
 H        -0.465824         0.800266        -0.664802
 H         0.052317        -0.781110        -1.185346
 H         1.800429        -1.062636         2.214393
