19
Iteration:  4621charge 0 multiplicity 1
 C         3.674289         1.622152         2.834336
 C         2.996283         0.887763         1.744431
 O         3.317237        -0.548440         1.428152
 C         2.683360        -0.328947         0.138722
 C         2.825632         1.182377         0.228666
 C         1.616556         1.212736         1.279456
 C         1.153951        -0.151488         0.729810
 C        -0.080130        -0.348238        -0.188664
 O         0.839582        -1.048487         1.693623
 H         4.269009         2.417310         2.287115
 H         2.980866         2.111703         3.611319
 H         4.289444         0.857062         3.307885
 H         3.102040        -0.874877        -0.716162
 H         3.334151         1.910283        -0.509639
 H         0.964667         1.957852         1.697875
 H        -0.066508         0.389349        -1.022615
 H        -0.282644        -1.422347        -0.543891
 H        -0.810512        -0.060227         0.536144
 H         1.686390        -0.914020         2.285206
