19
Iteration:  1128charge 0 multiplicity 1
 C         3.937741         1.695237         2.630496
 C         3.123156         0.979505         1.659032
 O         3.428352        -0.453384         1.403044
 C         2.563967        -0.411983         0.230431
 C         2.642046         1.259263         0.263905
 C         1.657053         0.987873         1.435479
 C         1.070516        -0.254119         0.869063
 C         0.056397        -0.049386        -0.251197
 O         0.610665        -1.272839         1.686132
 H         3.700093         1.271502         3.580796
 H         4.984159         1.510577         2.264775
 H         3.830949         2.719180         2.892813
 H         2.835449        -1.060078        -0.571963
 H         2.590575         2.035229        -0.431324
 H         0.926602         1.717755         1.975905
 H        -0.766664         0.566979         0.029145
 H         0.339168         0.357528        -1.229796
 H        -0.209477        -1.118830        -0.572013
 H         0.949929        -1.124890         2.672876
