19
Iteration:  2163charge 0 multiplicity 1
 C         3.773687         1.473995         2.893940
 C         3.066879         0.929252         1.716915
 O         3.258107        -0.480723         1.373316
 C         2.528437        -0.239333         0.076961
 C         2.790865         1.259425         0.162688
 C         1.655858         1.325357         1.248000
 C         1.069894        -0.161747         0.734376
 C        -0.068683        -0.297559        -0.153521
 O         0.903195        -1.233950         1.807723
 H         3.374455         1.013914         3.813437
 H         4.800723         1.107647         2.904466
 H         3.843954         2.626214         2.936706
 H         2.883331        -0.794153        -0.757845
 H         3.283783         1.909947        -0.661053
 H         1.193406         2.209975         1.498422
 H        -0.152182         0.504041        -0.908112
 H         0.011442        -1.319785        -0.495861
 H        -0.985617        -0.409755         0.483135
 H         1.774066        -1.145470         2.220685
