19
Iteration:  3095
 C         3.739850         1.407222         2.855962
 C         3.093478         0.897383         1.603964
 O         3.373803        -0.491916         1.344396
 C         2.532129        -0.241989         0.155914
 C         2.813870         1.385702         0.202343
 C         1.528092         1.215119         1.170738
 C         1.098221        -0.181724         0.843697
 C        -0.060834        -0.307225        -0.142213
 O         0.878649        -1.145314         1.811876
 H         3.711531         0.644146         3.657017
 H         4.809050         1.559354         2.583483
 H         3.303601         2.330833         3.352002
 H         2.727507        -0.891148        -0.748101
 H         2.985951         2.289334        -0.333331
 H         0.975646         2.026310         1.779436
 H         0.405508         0.287250        -1.119954
 H        -0.240654        -1.410170        -0.256704
 H        -0.930849         0.205381         0.045111
 H         1.692723        -1.198802         2.336527
