19
Iteration:  4030charge 0 multiplicity 1
 C         3.811191         1.708447         2.702458
 C         3.080681         0.958113         1.695424
 O         3.531858        -0.433047         1.351551
 C         2.613471        -0.236550         0.197173
 C         2.583012         1.268814         0.357330
 C         1.561424         1.048636         1.454636
 C         1.155884        -0.268370         0.831555
 C         0.051148        -0.193549        -0.245595
 O         0.672439        -1.334506         1.629446
 H         3.144781         1.597618         3.601824
 H         4.817515         1.264453         2.811268
 H         3.743735         2.805903         2.427713
 H         2.889867        -0.877157        -0.655399
 H         2.465068         2.061510        -0.371038
 H         0.862614         1.799745         1.966240
 H         0.333187         0.535025        -1.080949
 H        -0.051759        -1.220433        -0.623866
 H        -0.790702         0.264525         0.303448
 H         1.455428        -1.643358         2.092910
