19
Iteration:  3018charge 0 multiplicity 1
 C         3.863370         1.755403         2.661182
 C         3.058796         0.924467         1.668467
 O         3.362442        -0.515990         1.398787
 C         2.525859        -0.349037         0.142833
 C         2.633231         1.210946         0.306686
 C         1.608170         1.027331         1.499949
 C         1.140606        -0.239959         0.817287
 C         0.085385        -0.055374        -0.179781
 O         0.754094        -1.257970         1.642743
 H         3.715138         1.198980         3.583162
 H         4.931879         1.589950         2.401711
 H         3.419596         2.793549         2.780002
 H         2.668245        -1.057764        -0.718384
 H         2.789075         2.010812        -0.495499
 H         0.931054         1.642022         2.103954
 H         0.341455         0.778498        -0.979232
 H         0.137295        -0.908377        -0.845586
 H        -0.820170         0.029593         0.273775
 H         1.450886        -1.247553         2.317299
