19
Iteration:  1873
 C         4.056945         1.754869         2.594138
 C         3.076897         0.909205         1.766202
 O         3.400957        -0.518727         1.420587
 C         2.584489        -0.259088         0.211880
 C         2.664022         1.270782         0.391791
 C         1.536677         1.034681         1.438966
 C         1.080886        -0.282370         0.818700
 C         0.009893        -0.072594        -0.272924
 O         0.602570        -1.353589         1.627266
 H         4.267367         1.544885         3.639025
 H         4.912617         1.738312         2.003486
 H         3.753904         2.797716         2.609980
 H         2.806267        -0.974355        -0.631722
 H         3.024569         2.161968        -0.047106
 H         1.009729         1.902017         1.686547
 H         0.285134         0.721082        -0.817267
 H        -0.104879        -0.862861        -0.958028
 H        -0.945601         0.040901         0.215065
 H         1.224376        -1.652349         2.237980
