19
Iteration:  3804charge 0 multiplicity 1
 C         3.737558         1.658599         2.661870
 C         3.097734         0.890192         1.631342
 O         3.371303        -0.502443         1.440949
 C         2.583547        -0.347670         0.250324
 C         2.672442         1.198702         0.247748
 C         1.529940         1.156204         1.387613
 C         1.146266        -0.264709         0.821623
 C        -0.034384        -0.103918        -0.226677
 O         0.906563        -1.225212         1.667184
 H         3.310919         1.570032         3.710916
 H         4.742003         1.389637         2.871110
 H         3.566479         2.724068         2.548298
 H         2.781463        -1.009024        -0.588830
 H         2.884623         2.041541        -0.354018
 H         1.012127         1.983559         1.830403
 H        -0.049812         1.036616        -0.670327
 H        -0.023558        -1.063966        -0.857240
 H        -0.850631        -0.065872         0.470419
 H         1.802470        -1.482617         2.104640
