19
Iteration:  2800
 C         3.918890         1.651537         2.666741
 C         3.038808         0.901178         1.701202
 O         3.322416        -0.517224         1.373267
 C         2.520270        -0.279173         0.181563
 C         2.685005         1.285539         0.330215
 C         1.559175         1.098690         1.404179
 C         1.098524        -0.215214         0.784676
 C         0.061950        -0.146435        -0.207817
 O         0.783333        -1.281313         1.705942
 H         3.554151         1.467761         3.660772
 H         4.982490         1.431822         2.469589
 H         3.915236         2.749533         2.491702
 H         2.699280        -1.029831        -0.573909
 H         2.992124         2.104920        -0.259875
 H         0.889079         1.834380         1.789507
 H         0.424722         0.719201        -0.918116
 H         0.050566        -1.075053        -0.816243
 H        -0.856157        -0.054857         0.255553
 H         1.474963        -1.194309         2.389795
