19
Iteration:  3419charge 0 multiplicity 1
 C         4.086112         1.840581         2.573203
 C         3.153185         0.971219         1.752137
 O         3.412458        -0.439679         1.481817
 C         2.513415        -0.273324         0.253999
 C         2.494330         1.217519         0.406575
 C         1.547856         0.963128         1.559821
 C         1.057163        -0.308093         0.774709
 C         0.152809        -0.095735        -0.424916
 O         0.586523        -1.426860         1.657752
 H         4.251018         1.360526         3.574389
 H         4.982151         2.099207         1.877041
 H         3.603281         2.840976         2.877519
 H         2.909144        -0.875263        -0.596929
 H         2.560685         2.164142        -0.300083
 H         0.925624         1.771971         1.837303
 H         0.691594         0.422026        -1.105681
 H        -0.201586        -0.937895        -0.954913
 H        -0.793064         0.539502        -0.128837
 H         1.435651        -1.580664         2.036536
