19
Iteration:  4545charge 0 multiplicity 1
 C         3.935736         1.716631         2.617071
 C         3.024700         1.040346         1.715641
 O         3.382280        -0.400578         1.450671
 C         2.588661        -0.352069         0.318325
 C         2.641607         1.249153         0.354196
 C         1.531766         1.131450         1.370899
 C         1.087504        -0.348066         0.800364
 C         0.109855        -0.144558        -0.335563
 O         0.650177        -1.383307         1.669132
 H         4.959958         1.153000         2.437899
 H         4.135522         2.824918         2.320750
 H         3.624713         1.698312         3.697164
 H         2.847967        -1.186206        -0.345967
 H         3.034402         2.080364        -0.300442
 H         1.075489         1.909356         1.917942
 H         0.624834         0.458116        -1.082047
 H         0.086509        -1.153822        -0.828826
 H        -0.808104         0.330558        -0.118979
 H         1.265209        -1.355048         2.383175
