19
Iteration:  3142
 C         3.852954         1.613286         2.692046
 C         3.112053         0.937739         1.653164
 O         3.373490        -0.498169         1.360802
 C         2.549412        -0.313469         0.166724
 C         2.643721         1.294043         0.311374
 C         1.570064         1.064885         1.376750
 C         1.149923        -0.245966         0.809453
 C         0.065376        -0.095080        -0.234912
 O         0.731444        -1.272467         1.770077
 H         3.313286         1.437977         3.703969
 H         4.939052         1.471459         2.667343
 H         3.611270         2.672957         2.566360
 H         2.874830        -1.048409        -0.562526
 H         2.901109         2.128217        -0.383109
 H         0.944031         1.815575         1.768291
 H         0.102100         0.926878        -0.735185
 H         0.124681        -0.986019        -0.910202
 H        -0.958099        -0.101935         0.255392
 H         1.561677        -1.321232         2.324972
