19
Iteration:  3462charge 0 multiplicity 1
 C         3.888660         1.672613         2.681142
 C         3.085139         0.923858         1.735625
 O         3.520195        -0.422086         1.476010
 C         2.539530        -0.340343         0.204561
 C         2.603765         1.205301         0.298918
 C         1.519583         1.137181         1.409724
 C         1.098280        -0.255571         0.813741
 C        -0.029850        -0.137190        -0.331357
 O         0.749375        -1.303985         1.642814
 H         4.246303         0.950509         3.426035
 H         4.819813         2.139591         2.274760
 H         3.301404         2.481654         3.179792
 H         2.888305        -0.946317        -0.670366
 H         2.955940         2.089123        -0.381320
 H         1.011832         1.989676         1.796241
 H         0.091500         0.600826        -1.008426
 H        -0.095326        -1.056856        -0.860800
 H        -1.004667        -0.029393         0.323437
 H         1.426254        -1.339822         2.357395
