19
Iteration:  1817charge 0 multiplicity 1
 C         3.985928         1.800865         2.570104
 C         3.095928         0.936474         1.679349
 O         3.467116        -0.468822         1.417290
 C         2.542212        -0.365337         0.277840
 C         2.599504         1.155820         0.323443
 C         1.580945         1.020959         1.496922
 C         1.085139        -0.308259         0.859883
 C         0.132511         0.125220        -0.233142
 O         0.549870        -1.407748         1.599537
 H         3.742919         1.706069         3.609242
 H         4.999694         1.585373         2.467224
 H         3.685748         2.823494         2.205999
 H         2.709353        -1.086396        -0.504825
 H         2.756235         1.914445        -0.504036
 H         1.158388         1.862978         2.148855
 H         0.014251         1.154437        -0.362775
 H         0.408916        -0.424479        -1.076386
 H        -0.848093        -0.257543         0.121504
 H         1.245192        -1.915765         2.020045
