19
Iteration:   505
 C         4.092210         1.773650         2.510805
 C         3.092184         0.987078         1.636953
 O         3.485664        -0.461102         1.473901
 C         2.566163        -0.435824         0.247774
 C         2.533483         1.170630         0.255418
 C         1.574110         1.028694         1.557191
 C         1.121152        -0.336689         0.851727
 C         0.126972         0.062690        -0.294347
 O         0.468763        -1.320291         1.708650
 H         3.714786         1.394529         3.567415
 H         5.103977         1.785421         2.187287
 H         3.754124         2.799894         2.613369
 H         2.893055        -1.187488        -0.517416
 H         2.623148         2.078050        -0.349381
 H         0.937325         1.673849         1.997172
 H        -0.871199        -0.243112        -0.012689
 H         0.009566         1.117989        -0.622506
 H         0.487108        -0.478818        -1.167151
 H         1.211515        -1.712035         2.287163
