19
Iteration:  4324charge 0 multiplicity 1
 C         3.755893         1.874548         2.618234
 C         3.129789         0.931566         1.696902
 O         3.511335        -0.436247         1.449443
 C         2.547327        -0.379830         0.239299
 C         2.711653         1.239045         0.338379
 C         1.581152         1.024155         1.492999
 C         1.139765        -0.325998         0.781048
 C         0.019264        -0.093499        -0.226525
 O         0.638702        -1.381428         1.565486
 H         3.081170         2.248320         3.471671
 H         4.624152         1.408846         3.052563
 H         4.152945         2.717501         1.984491
 H         2.939735        -1.045681        -0.521807
 H         2.908737         2.058728        -0.398802
 H         0.935154         1.769487         1.923462
 H         0.235348         0.928680        -0.576461
 H        -0.011222        -0.824276        -0.986774
 H        -0.854955        -0.235782         0.384117
 H         1.385932        -1.457046         2.228429
