19
Iteration:  1199charge 0 multiplicity 1
 C         4.017182         1.763601         2.528863
 C         3.124804         0.936738         1.679587
 O         3.385762        -0.522220         1.520617
 C         2.546591        -0.361972         0.273348
 C         2.599567         1.181440         0.301443
 C         1.606617         1.084740         1.470815
 C         1.068917        -0.249194         0.809830
 C         0.042652        -0.014866        -0.192281
 O         0.615712        -1.334338         1.594513
 H         4.106264         1.293089         3.520736
 H         4.929061         1.877410         2.007639
 H         3.608890         2.740740         2.872711
 H         2.933223        -1.036897        -0.505381
 H         2.782274         1.888463        -0.496890
 H         0.956340         1.825917         1.784446
 H        -0.879467         0.507765         0.045617
 H         0.459614         0.604011        -0.947724
 H         0.007558        -0.881581        -0.727541
 H         1.403788        -1.473000         2.235734
