19
Iteration:  2212charge 0 multiplicity 1
 C         3.781766         1.484145         2.856634
 C         3.029900         0.893447         1.691736
 O         3.435093        -0.474650         1.286116
 C         2.612880        -0.270391         0.108441
 C         2.694768         1.265252         0.202849
 C         1.556146         1.097601         1.321762
 C         1.132160        -0.226569         0.779670
 C        -0.067659        -0.243650        -0.235192
 O         0.813458        -1.036434         1.877269
 H         3.302160         1.349793         3.877403
 H         4.794086         0.994725         2.944147
 H         3.993615         2.493172         2.608886
 H         2.742031        -0.916996        -0.793253
 H         2.918946         2.074577        -0.476779
 H         1.076283         1.957591         1.882377
 H         0.388287         0.444594        -0.995872
 H        -0.153211        -1.276365        -0.671452
 H        -1.126959         0.024280         0.089410
 H         1.624409        -1.224072         2.294756
