19
Iteration:  1424charge 0 multiplicity 1
 C         4.019197         1.709649         2.602592
 C         3.185411         0.997659         1.571592
 O         3.446370        -0.460631         1.422381
 C         2.509965        -0.413568         0.291459
 C         2.496680         1.161564         0.266508
 C         1.666108         1.059914         1.528616
 C         1.092190        -0.275992         0.840895
 C         0.128441        -0.022280        -0.228779
 O         0.511038        -1.300723         1.652199
 H         3.667802         1.568891         3.653663
 H         5.158318         1.469748         2.646445
 H         3.866413         2.758783         2.474004
 H         2.679883        -1.209437        -0.543372
 H         2.670625         1.850455        -0.569311
 H         1.191674         1.809614         1.946440
 H        -0.923648        -0.336110         0.024518
 H         0.003135         1.085858        -0.462335
 H         0.511405        -0.569987        -1.090282
 H         1.089173        -1.121009         2.338034
