19
Iteration:  3214charge 0 multiplicity 1
 C         3.973668         1.775743         2.518868
 C         3.064271         0.880779         1.762374
 O         3.426172        -0.461296         1.472266
 C         2.568419        -0.335398         0.326989
 C         2.628868         1.223606         0.380010
 C         1.513974         1.083620         1.427162
 C         1.110326        -0.245504         0.832707
 C         0.097328         0.025665        -0.265244
 O         0.653988        -1.471210         1.568726
 H         4.080235         1.603271         3.542110
 H         4.868011         1.686125         1.903711
 H         3.622333         2.826323         2.470497
 H         2.784290        -1.028867        -0.513302
 H         2.766926         2.036905        -0.235296
 H         0.762562         1.832811         1.801575
 H         0.404744         0.838937        -0.990966
 H        -0.135626        -0.969971        -0.607374
 H        -0.900483         0.426047         0.027084
 H         1.395103        -1.510712         2.242334
