19
Iteration:  1950
 C         3.635337         1.354007         2.897251
 C         3.072625         0.944719         1.599641
 O         3.479206        -0.440623         1.296609
 C         2.576101        -0.326608         0.099916
 C         2.670395         1.238590         0.160240
 C         1.634611         1.191843         1.256365
 C         1.130583        -0.187426         0.758011
 C        -0.112107        -0.210806        -0.065692
 O         0.919235        -1.028841         1.815233
 H         3.121791         0.539594         3.454634
 H         4.656120         1.160423         3.054083
 H         3.428289         2.298895         3.311194
 H         2.988516        -1.028085        -0.717124
 H         2.869783         2.138969        -0.447818
 H         1.076405         1.920470         1.780878
 H         0.037564         0.291159        -0.941005
 H        -0.332502        -1.229560        -0.306653
 H        -0.957279         0.220172         0.426900
 H         1.869605        -1.104802         2.203005
