19
Iteration:   805
 C         3.915036         1.564456         2.801760
 C         3.081879         0.982848         1.636059
 O         3.418769        -0.439041         1.420916
 C         2.560983        -0.380626         0.182645
 C         2.668653         1.193544         0.210113
 C         1.538473         1.179397         1.347044
 C         1.120704        -0.216918         0.820518
 C        -0.085982        -0.154139        -0.240731
 O         0.764981        -1.184206         1.767135
 H         3.736871         0.885392         3.671010
 H         5.010423         1.377307         2.485760
 H         3.792496         2.561510         3.129452
 H         2.816411        -1.020615        -0.773265
 H         3.059744         1.812341        -0.643380
 H         0.969736         1.993857         1.581426
 H        -0.952365         0.385666         0.107522
 H         0.244398         0.388483        -1.160727
 H        -0.327478        -1.166137        -0.706414
 H         1.525639        -1.526664         2.301258
