19
Iteration:  4297charge 0 multiplicity 1
 C         3.822642         1.992615         2.647336
 C         3.153165         0.959313         1.754101
 O         3.493152        -0.518908         1.425648
 C         2.647476        -0.350180         0.255254
 C         2.598595         1.229600         0.362524
 C         1.604526         1.028827         1.422547
 C         1.101338        -0.315994         0.827106
 C         0.041955        -0.033363        -0.275582
 O         0.570693        -1.475626         1.598992
 H         3.386631         2.514464         3.459328
 H         4.769726         1.552547         3.118090
 H         4.241864         2.723036         1.960676
 H         3.077236        -0.917998        -0.604524
 H         2.731428         1.872899        -0.498086
 H         0.864923         1.733541         1.934628
 H         0.110786         1.010463        -0.678220
 H        -0.020667        -0.868261        -1.055902
 H        -0.897594        -0.264335         0.332704
 H         1.489709        -1.850010         1.807104
