19
Iteration:  3529
 C         3.686485         1.554240         2.923832
 C         3.126421         0.953257         1.657274
 O         3.422825        -0.478598         1.334540
 C         2.569248        -0.290218         0.061964
 C         2.737886         1.268966         0.244288
 C         1.613452         1.140996         1.259033
 C         1.110566        -0.218875         0.711660
 C        -0.175586        -0.276211        -0.180546
 O         0.930395        -1.140692         1.810809
 H         3.125788         1.204371         3.793123
 H         4.713644         1.236014         3.249485
 H         3.733007         2.633218         2.797745
 H         2.813247        -0.996691        -0.710024
 H         3.021832         2.138062        -0.316872
 H         0.981209         1.890727         1.778022
 H        -0.097986         0.415756        -1.017314
 H        -0.245807        -1.270563        -0.604853
 H        -1.080844        -0.028623         0.438231
 H         1.785993        -1.160106         2.215076
