19
Iteration:  3498charge 0 multiplicity 1
 C         3.669704         1.567837         2.823903
 C         3.017840         0.932145         1.608878
 O         3.379710        -0.492373         1.382751
 C         2.529976        -0.279359         0.067653
 C         2.689301         1.200909         0.230155
 C         1.597575         1.192689         1.278480
 C         1.203760        -0.234157         0.783207
 C         0.028577        -0.161918        -0.133536
 O         0.897352        -1.199188         1.806372
 H         3.480842         0.843531         3.748535
 H         4.802820         1.739993         2.652998
 H         3.158126         2.521251         3.078198
 H         2.762045        -1.012821        -0.660575
 H         3.095199         1.957928        -0.360427
 H         0.911360         1.968649         1.686879
 H        -0.015285         0.853192        -0.675655
 H         0.046675        -1.027956        -0.834251
 H        -0.905702        -0.199032         0.355677
 H         1.809490        -1.460068         2.159976
