19
Iteration:  1372charge 0 multiplicity 1
 C         4.023812         1.766518         2.479652
 C         3.062607         0.879387         1.773161
 O         3.327216        -0.580195         1.503832
 C         2.539417        -0.350303         0.280491
 C         2.676542         1.143572         0.319165
 C         1.605688         1.074755         1.487722
 C         1.147877        -0.191900         0.820779
 C        -0.014729        -0.013928        -0.284565
 O         0.680272        -1.276231         1.632236
 H         4.432446         1.425512         3.447794
 H         4.840340         2.093487         1.873062
 H         3.442745         2.711199         2.687653
 H         2.745014        -0.902454        -0.605931
 H         2.889724         2.039269        -0.287964
 H         0.954954         1.816979         1.822147
 H        -0.831415         0.432830         0.243903
 H         0.386089         0.646360        -1.134291
 H        -0.537525        -0.934258        -0.706536
 H         1.474027        -1.599213         2.059957
