19
Iteration:  3521charge 0 multiplicity 1
 C         3.671312         1.506278         2.897168
 C         3.048421         0.892243         1.588197
 O         3.456132        -0.495804         1.327121
 C         2.573190        -0.300595         0.171657
 C         2.753009         1.285680         0.225310
 C         1.590515         1.158475         1.245456
 C         1.083440        -0.186090         0.788606
 C        -0.133041        -0.240655        -0.177821
 O         0.976065        -1.137007         1.766775
 H         2.961070         1.266073         3.848410
 H         4.822744         1.360190         2.984597
 H         3.422374         2.593018         2.797523
 H         2.957278        -1.009668        -0.536424
 H         2.972084         2.118257        -0.323041
 H         1.079902         1.975147         1.842125
 H        -0.272858         0.646233        -0.969259
 H        -0.230030        -1.287067        -0.588998
 H        -1.012056        -0.125096         0.335987
 H         1.768626        -1.059866         2.320705
