19
Iteration:   919
 C         3.998551         1.709175         2.632757
 C         3.125512         0.887311         1.638331
 O         3.411346        -0.440848         1.467210
 C         2.542268        -0.409593         0.258497
 C         2.562661         1.186679         0.239680
 C         1.609287         1.097563         1.412454
 C         1.069509        -0.252928         0.857751
 C         0.023038         0.010783        -0.289253
 O         0.677313        -1.367715         1.678646
 H         3.730036         1.378371         3.672136
 H         5.082461         1.587984         2.456805
 H         3.669124         2.827452         2.596878
 H         2.840420        -1.152938        -0.440048
 H         2.892606         2.047284        -0.370630
 H         1.144388         2.032922         1.805084
 H        -0.703870         0.742611         0.242423
 H         0.427100         0.638094        -1.099257
 H        -0.371550        -0.897621        -0.746524
 H         1.112612        -1.291490         2.631234
