19
Iteration:  2041
 C         4.136347         1.717116         2.536814
 C         3.001560         0.988991         1.812535
 O         3.355917        -0.414833         1.417477
 C         2.534522        -0.285925         0.283121
 C         2.612475         1.248896         0.328447
 C         1.510026         1.050435         1.492075
 C         1.117690        -0.322952         0.808478
 C         0.085659        -0.012550        -0.314187
 O         0.635260        -1.487068         1.627988
 H         4.221640         1.351642         3.539480
 H         5.205340         1.610719         2.123011
 H         3.950365         2.818615         2.580702
 H         2.988808        -0.862690        -0.507575
 H         2.677524         2.050221        -0.317442
 H         0.706697         1.839130         1.740058
 H         0.430920         0.923920        -0.925270
 H        -0.028774        -0.913632        -0.919626
 H        -0.776581         0.301692         0.196996
 H         1.190969        -1.572621         2.483058
