19
Iteration:  3952charge 0 multiplicity 1
 C         3.738392         1.526069         2.944039
 C         3.055752         1.039307         1.668392
 O         3.369510        -0.423641         1.340167
 C         2.574609        -0.251299         0.126043
 C         2.774567         1.262398         0.243824
 C         1.559741         1.156391         1.214680
 C         1.113064        -0.269264         0.778711
 C        -0.088443        -0.286754        -0.181468
 O         0.880896        -1.222623         1.765692
 H         3.752534         0.699466         3.657054
 H         4.728162         1.803641         2.557898
 H         3.472063         2.534671         3.256746
 H         3.022589        -0.829319        -0.708236
 H         2.808870         1.984964        -0.532674
 H         1.108003         2.084732         1.473979
 H         0.050365         0.506371        -0.799062
 H        -0.008334        -1.206699        -0.754855
 H        -1.007039        -0.287206         0.493001
 H         1.749315        -1.332878         2.214791
