19
Iteration:   568
 C         3.932115         1.587235         2.651962
 C         3.031426         0.915965         1.732045
 O         3.309907        -0.513882         1.443870
 C         2.547192        -0.283303         0.170374
 C         2.779534         1.194467         0.203611
 C         1.555081         1.199383         1.401371
 C         1.093877        -0.245372         0.745060
 C        -0.093531        -0.145572        -0.187659
 O         0.836643        -1.230161         1.748173
 H         3.810583         1.300163         3.781501
 H         4.987048         1.556284         2.462751
 H         3.602356         2.586013         2.612438
 H         2.938499        -1.043366        -0.572511
 H         2.765494         2.058227        -0.452844
 H         1.090124         2.007787         1.784445
 H        -0.940988         0.453166         0.289250
 H         0.250302         0.511878        -1.120639
 H        -0.228595        -1.080173        -0.649607
 H         1.644013        -1.387731         2.278828
