19
Iteration:  2697charge 0 multiplicity 1
 C         3.942864         1.714321         2.702187
 C         3.038809         0.907353         1.760768
 O         3.414180        -0.517154         1.338188
 C         2.546781        -0.350399         0.236951
 C         2.647483         1.298281         0.367792
 C         1.597354         1.090108         1.368171
 C         1.064185        -0.333374         0.798359
 C         0.000954        -0.084884        -0.326147
 O         0.701151        -1.255740         1.740159
 H         4.341681         1.283933         3.652142
 H         4.853194         1.876976         2.108897
 H         3.440245         2.673748         2.842752
 H         3.048362        -0.842543        -0.650162
 H         2.860322         2.079006        -0.290237
 H         1.107059         1.954290         1.760366
 H         0.363770         0.586566        -0.961713
 H        -0.037794        -1.080097        -0.748699
 H        -1.027119         0.249928         0.062543
 H         1.551244        -1.583280         2.162674
