19
Iteration:  2245
 C         3.870136         1.642496         2.719923
 C         3.146296         0.936913         1.578732
 O         3.443991        -0.510614         1.423221
 C         2.537342        -0.318702         0.249882
 C         2.562892         1.188642         0.237963
 C         1.582219         1.162539         1.421394
 C         1.099259        -0.236601         0.832720
 C         0.069501        -0.065672        -0.225672
 O         0.717204        -1.289604         1.697486
 H         3.442616         1.370976         3.715401
 H         4.982091         1.532606         2.649743
 H         3.610737         2.680031         2.685527
 H         2.585151        -0.994161        -0.621147
 H         2.849512         1.846433        -0.627093
 H         1.033270         2.002204         1.862897
 H         0.521496         0.573920        -1.074187
 H        -0.107591        -1.055643        -0.710956
 H        -0.860605         0.446469         0.108779
 H         1.368148        -1.583355         2.387070
