19
Iteration:   335charge 0 multiplicity 1
 C         3.910685         1.677738         2.674101
 C         3.062202         0.889040         1.672477
 O         3.371030        -0.530407         1.290599
 C         2.535926        -0.338831         0.139766
 C         2.706964         1.242904         0.296819
 C         1.552846         1.104869         1.472374
 C         1.121541        -0.239845         0.802846
 C         0.012066        -0.129555        -0.220915
 O         0.749729        -1.193102         1.792181
 H         3.874909         1.274067         3.819909
 H         4.973127         1.619949         2.293683
 H         3.433540         2.713418         2.789504
 H         2.712646        -1.057440        -0.664236
 H         2.858282         2.164879        -0.325972
 H         0.962474         1.832274         2.050127
 H        -0.692418         0.586010         0.119347
 H         0.383588         0.178760        -1.163651
 H        -0.469196        -1.111764        -0.459107
 H         1.617608        -1.367455         2.250049
