19
Iteration:  3833
 C         3.925037         1.917623         2.723058
 C         3.098114         0.959567         1.723366
 O         3.388090        -0.458996         1.498254
 C         2.562290        -0.326756         0.179340
 C         2.777974         1.199515         0.296127
 C         1.552454         1.075228         1.333935
 C         1.106976        -0.380518         0.818338
 C        -0.086975        -0.061642        -0.161188
 O         0.705431        -1.442099         1.538259
 H         3.596846         1.735026         3.804089
 H         5.019004         1.593645         2.560060
 H         3.844620         2.900582         2.208448
 H         2.926006        -1.030994        -0.623514
 H         3.036350         2.170579        -0.283110
 H         0.961888         1.843275         1.769619
 H         0.163576         0.813264        -0.682988
 H        -0.343209        -0.853781        -0.855477
 H        -0.999474         0.036701         0.458435
 H         1.480460        -1.662249         2.188739
