19
Iteration:  3492
 C         3.744308         1.608945         2.842343
 C         3.064701         0.959628         1.656971
 O         3.337215        -0.486050         1.379560
 C         2.522696        -0.305440         0.075776
 C         2.710677         1.231521         0.169690
 C         1.565273         1.117392         1.294503
 C         1.170101        -0.273188         0.817548
 C         0.038542        -0.142243        -0.172687
 O         0.876954        -1.204746         1.810132
 H         3.524701         0.951244         3.629834
 H         4.734183         1.889407         2.679077
 H         3.176636         2.455397         3.241101
 H         2.909456        -0.967624        -0.763041
 H         3.089934         2.116788        -0.402659
 H         0.939978         1.924471         1.652324
 H         0.045836         0.798272        -0.749618
 H        -0.033126        -0.953506        -0.917429
 H        -0.923355        -0.264906         0.438692
 H         1.731534        -1.520460         2.031331
