19
Iteration:  2591charge 0 multiplicity 1
 C         3.704602         1.618511         2.809693
 C         3.144877         0.845460         1.663718
 O         3.388731        -0.522745         1.296742
 C         2.574009        -0.271690         0.111751
 C         2.669936         1.274315         0.254153
 C         1.586228         1.145370         1.380660
 C         1.112107        -0.226016         0.790721
 C        -0.044934        -0.140801        -0.174122
 O         0.899120        -1.232935         1.727633
 H         3.157080         1.426195         3.754199
 H         4.766099         1.408769         2.955843
 H         3.571567         2.657887         2.764490
 H         2.648174        -1.021652        -0.679133
 H         3.099491         1.993959        -0.366822
 H         1.068436         1.923658         1.925825
 H         0.231977         0.569899        -1.007954
 H        -0.326111        -1.078118        -0.648751
 H        -0.852460         0.258167         0.483257
 H         1.489805        -1.258078         2.466419
