19
Iteration:  3997
 C         3.644235         1.644211         2.830642
 C         3.041192         0.924955         1.725140
 O         3.415929        -0.492421         1.323153
 C         2.618990        -0.276881         0.110909
 C         2.741373         1.213195         0.269989
 C         1.589869         1.116214         1.322817
 C         1.122876        -0.220975         0.754996
 C        -0.102334        -0.148199        -0.189530
 O         0.956975        -1.275575         1.753560
 H         3.023452         1.362138         3.710587
 H         4.690822         1.541106         3.164000
 H         3.673769         2.761742         2.696809
 H         2.873628        -0.922011        -0.752339
 H         2.791137         2.009853        -0.419849
 H         0.859081         1.942305         1.591589
 H         0.036690         0.707975        -0.877056
 H        -0.229921        -1.072374        -0.784697
 H        -1.028923        -0.077714         0.447493
 H         1.894130        -1.264675         2.178403
