19
Iteration:   677
 C         3.997415         1.605606         2.699892
 C         3.097495         0.951605         1.663383
 O         3.278882        -0.479630         1.451089
 C         2.537509        -0.286395         0.184472
 C         2.674388         1.219403         0.287724
 C         1.602606         1.184578         1.342877
 C         1.073636        -0.245548         0.776201
 C        -0.055835        -0.157736        -0.259227
 O         0.793470        -1.240305         1.772953
 H         3.869282         0.976536         3.653148
 H         4.988049         1.486644         2.284343
 H         3.780136         2.629122         2.800274
 H         2.976161        -1.020988        -0.557358
 H         2.942979         1.939556        -0.477575
 H         1.034024         1.855450         1.854539
 H        -1.054101        -0.362601         0.250852
 H        -0.033377         0.869750        -0.809525
 H        -0.036951        -0.972994        -0.909448
 H         1.659025        -1.401340         2.071920
