19
Iteration:  1484charge 0 multiplicity 1
 C         3.866513         1.526626         2.705236
 C         3.109697         0.874015         1.686455
 O         3.242973        -0.561712         1.450676
 C         2.554370        -0.345504         0.107645
 C         2.741611         1.243580         0.345508
 C         1.606675         1.223726         1.298154
 C         1.088821        -0.159312         0.690635
 C        -0.120736        -0.197489        -0.190458
 O         0.917208        -1.087025         1.799048
 H         3.393276         1.219964         3.631788
 H         4.902648         1.327746         2.597146
 H         3.832209         2.620113         2.480389
 H         2.779558        -1.026074        -0.675480
 H         3.041619         1.897041        -0.402566
 H         1.096264         2.027465         1.958510
 H        -0.867536        -0.827426         0.278677
 H        -0.393721         0.737680        -0.623894
 H         0.031028        -0.787316        -1.117571
 H         1.872153        -1.058625         2.247894
