19
Iteration:   627charge 0 multiplicity 1
 C         3.693191         1.468415         2.925436
 C         3.152598         0.869918         1.546662
 O         3.446492        -0.526381         1.241969
 C         2.546471        -0.295530         0.094127
 C         2.720993         1.268893         0.165678
 C         1.633391         1.164574         1.276753
 C         1.070911        -0.213165         0.805804
 C        -0.063031        -0.187952        -0.121944
 O         0.822652        -1.064154         1.902415
 H         3.252073         0.955225         3.746757
 H         4.791958         1.508511         2.927498
 H         3.355068         2.568674         2.867232
 H         2.776119        -0.891364        -0.746600
 H         3.078620         2.105864        -0.447925
 H         1.070390         2.038120         1.852688
 H        -0.985900         0.149019         0.200344
 H         0.289041         0.161154        -1.026045
 H        -0.357289        -1.294105        -0.216754
 H         1.789187        -1.016151         2.301848
