19
Iteration:  1145
 C         3.964037         1.761163         2.567867
 C         3.101853         0.856526         1.655338
 O         3.512527        -0.477311         1.370254
 C         2.554174        -0.363777         0.256081
 C         2.561149         1.173489         0.338819
 C         1.549137         1.034155         1.536752
 C         1.141144        -0.282800         0.852149
 C         0.145802        -0.024788        -0.306812
 O         0.521005        -1.277116         1.687638
 H         4.071090         1.391369         3.638039
 H         4.976021         1.896107         2.243599
 H         3.357937         2.730635         2.447608
 H         2.789561        -1.065197        -0.591224
 H         2.713764         2.044446        -0.369943
 H         1.070394         1.819858         1.992524
 H        -0.597031         0.807721         0.079219
 H         0.654693         0.467197        -1.145064
 H        -0.413769        -0.875922        -0.519770
 H         1.045337        -1.268889         2.582266
