19
Iteration:  1123charge 0 multiplicity 1
 C         3.966396         1.675503         2.669429
 C         3.101826         0.971915         1.621215
 O         3.398655        -0.416361         1.396527
 C         2.570859        -0.395208         0.234980
 C         2.644142         1.203151         0.285242
 C         1.629111         1.030701         1.392160
 C         1.088425        -0.245418         0.879813
 C         0.027567        -0.078837        -0.273319
 O         0.641293        -1.272185         1.699720
 H         3.738073         1.105348         3.628446
 H         5.006062         1.408675         2.524734
 H         3.815992         2.803119         2.820394
 H         2.959725        -1.000450        -0.637014
 H         2.711562         2.048520        -0.472893
 H         1.130400         1.781108         1.890423
 H        -0.952295         0.464531         0.087311
 H         0.335377         0.484714        -1.170219
 H        -0.269337        -1.082997        -0.421430
 H         0.959152        -1.204422         2.579145
