19
Iteration:  4497charge 0 multiplicity 1
 C         3.893934         1.835233         2.583351
 C         2.978947         0.895713         1.765594
 O         3.329193        -0.485007         1.535738
 C         2.584293        -0.356369         0.263176
 C         2.747129         1.243087         0.291669
 C         1.568032         1.118919         1.413325
 C         1.151889        -0.218934         0.815245
 C         0.001366        -0.155303        -0.295076
 O         0.733073        -1.370481         1.583698
 H         4.717678         1.221636         2.966100
 H         4.254361         2.561371         1.919637
 H         3.372492         2.405874         3.380318
 H         2.991142        -1.107070        -0.439267
 H         3.339568         2.003650        -0.189880
 H         0.898974         1.898941         1.913249
 H         0.100509         0.776731        -0.938811
 H         0.075402        -1.029238        -0.886965
 H        -0.940868         0.007595         0.286348
 H         1.495413        -1.671062         2.119281
