19
Iteration:   974
 C         4.024756         1.717230         2.507503
 C         3.090486         0.882129         1.714094
 O         3.356793        -0.547219         1.513710
 C         2.513154        -0.341931         0.248297
 C         2.689912         1.233531         0.379079
 C         1.499913         1.105313         1.460003
 C         1.065207        -0.221159         0.802831
 C         0.047753        -0.048815        -0.342183
 O         0.700033        -1.297066         1.692140
 H         4.148258         1.324052         3.511383
 H         4.980032         1.859158         1.992762
 H         3.643552         2.803958         2.537144
 H         2.935452        -0.892453        -0.509936
 H         2.865487         2.021647        -0.433765
 H         0.963360         1.824299         1.990615
 H        -0.756570         0.689343        -0.041780
 H         0.594050         0.183522        -1.240147
 H        -0.581341        -0.991335        -0.522989
 H         1.532130        -1.502032         2.281240
