19
Iteration:   480charge 0 multiplicity 1
 C         4.000108         1.742171         2.575976
 C         3.129414         0.907242         1.669209
 O         3.497494        -0.431061         1.392689
 C         2.485151        -0.367785         0.323351
 C         2.573804         1.120965         0.283075
 C         1.605807         1.058793         1.428885
 C         1.110080        -0.274901         0.881099
 C         0.101934        -0.019893        -0.248618
 O         0.542325        -1.279355         1.663158
 H         3.865763         1.304111         3.623403
 H         4.990271         1.736408         2.120319
 H         3.691397         2.768584         2.717129
 H         2.751586        -1.131355        -0.425700
 H         2.591149         1.865921        -0.520758
 H         1.085457         1.883385         1.919408
 H        -0.918106        -0.333084         0.083770
 H        -0.080885         1.055249        -0.573112
 H         0.507203        -0.478185        -1.109797
 H         1.215438        -1.572736         2.402731
