19
Iteration:  3387charge 0 multiplicity 1
 C         3.872518         1.723644         2.592021
 C         3.004757         0.922816         1.761865
 O         3.496565        -0.408206         1.394970
 C         2.552575        -0.340523         0.281601
 C         2.500699         1.235846         0.313199
 C         1.591801         1.099423         1.484973
 C         1.139278        -0.261319         0.837680
 C         0.172567        -0.074023        -0.264117
 O         0.641105        -1.414702         1.593177
 H         3.930128         1.476859         3.668735
 H         4.948300         1.476162         2.351410
 H         3.647893         2.796174         2.322450
 H         2.762391        -1.123239        -0.474395
 H         2.739092         2.201187        -0.309079
 H         1.004705         1.893753         1.888792
 H         0.604967         0.504609        -1.005882
 H        -0.125515        -1.010394        -0.666054
 H        -0.703887         0.554670         0.148762
 H         1.388741        -1.545459         2.264258
