19
Iteration:  2694
 C         3.930954         1.692969         2.715268
 C         3.065469         0.927206         1.754282
 O         3.401316        -0.521343         1.344606
 C         2.548675        -0.328838         0.218605
 C         2.664982         1.289843         0.360120
 C         1.578708         1.100321         1.341600
 C         1.045490        -0.318000         0.810005
 C        -0.019097        -0.121845        -0.307670
 O         0.729802        -1.245981         1.751207
 H         4.346771         1.249410         3.626943
 H         4.875946         1.721856         2.172636
 H         3.387082         2.665564         2.935095
 H         3.035496        -0.773502        -0.679589
 H         2.849904         2.140267        -0.299950
 H         1.132475         1.955313         1.711025
 H         0.427322         0.658615        -1.020251
 H         0.001001        -1.128589        -0.810899
 H        -0.985589         0.245762         0.042070
 H         1.456992        -1.627570         2.173385
