19
Iteration:  1571
 C         3.911308         1.667155         2.656360
 C         3.160400         0.866787         1.685966
 O         3.453120        -0.515889         1.289371
 C         2.519251        -0.319972         0.192166
 C         2.548811         1.241867         0.396033
 C         1.581203         1.076830         1.425158
 C         1.121851        -0.255556         0.885820
 C         0.082951        -0.045446        -0.295739
 O         0.651963        -1.261388         1.765984
 H         3.963014         1.271484         3.709450
 H         4.908284         2.018132         2.262613
 H         3.333723         2.648628         2.767864
 H         2.578780        -0.996648        -0.663638
 H         2.910666         1.954055        -0.322105
 H         0.954228         1.883713         1.728800
 H        -0.391055         1.016091        -0.315818
 H         0.687727        -0.059324        -1.271748
 H        -0.667634        -0.866039        -0.380581
 H         1.345105        -1.485924         2.339689
