19
Iteration:  3304
 C         3.721697         1.449271         2.884212
 C         3.113161         0.944810         1.630755
 O         3.301858        -0.448722         1.374163
 C         2.573624        -0.283317         0.113636
 C         2.699370         1.283025         0.224224
 C         1.666521         1.165618         1.266987
 C         1.091040        -0.206866         0.736361
 C        -0.076557        -0.320395        -0.205427
 O         0.944134        -1.099972         1.840521
 H         3.306556         0.841672         3.714090
 H         4.779145         1.471683         2.740328
 H         3.409034         2.434588         3.104773
 H         2.902381        -0.941177        -0.681915
 H         2.854200         2.220262        -0.425886
 H         1.035754         1.959040         1.594222
 H         0.110757         0.691046        -0.881066
 H        -0.124552        -1.183565        -0.954472
 H        -1.012079        -0.265101         0.229613
 H         1.756461        -1.095181         2.401164
