19
Iteration:  1830
 C         3.950253         1.798084         2.511065
 C         3.135312         0.940497         1.655282
 O         3.468650        -0.447465         1.466124
 C         2.515173        -0.479041         0.327183
 C         2.540256         1.159694         0.268716
 C         1.615657         1.018979         1.614310
 C         1.133409        -0.218570         0.934240
 C         0.127652         0.122019        -0.195448
 O         0.558636        -1.390368         1.494999
 H         3.697281         1.522641         3.548202
 H         4.949764         1.581229         2.327603
 H         3.961221         2.861342         2.345848
 H         2.884648        -1.166433        -0.505976
 H         2.375400         1.939551        -0.461067
 H         0.815825         1.577692         1.928995
 H         0.194978         1.101905        -0.485198
 H         0.437528        -0.435113        -1.165814
 H        -0.928088        -0.151622        -0.124408
 H         1.373633        -1.796528         1.921330
