19
Iteration:  3784charge 0 multiplicity 1
 C         3.742956         1.573549         2.803510
 C         3.015910         0.904179         1.701172
 O         3.366628        -0.477726         1.319593
 C         2.519195        -0.278007         0.124378
 C         2.685858         1.285638         0.182227
 C         1.601434         1.151043         1.277765
 C         1.149218        -0.248801         0.818977
 C         0.030467        -0.191536        -0.246424
 O         0.866013        -1.195529         1.887101
 H         3.410214         1.059166         3.761929
 H         4.782889         1.268936         2.730419
 H         3.481921         2.678475         2.819664
 H         2.875081        -1.005110        -0.592177
 H         3.000020         2.015360        -0.483688
 H         0.951108         1.916623         1.749454
 H         0.154648         0.787610        -0.930169
 H         0.250665        -1.232016        -0.685003
 H        -0.949116        -0.091293         0.212417
 H         1.794275        -1.240548         2.255455
