19
Iteration:   255charge 0 multiplicity 1
 C         3.943632         1.706526         2.518401
 C         3.132734         0.928918         1.687184
 O         3.421406        -0.485473         1.438184
 C         2.506890        -0.372164         0.326710
 C         2.637725         1.216532         0.299141
 C         1.623565         1.062011         1.482919
 C         1.094101        -0.254436         0.824819
 C        -0.025481        -0.036804        -0.316962
 O         0.677503        -1.292213         1.715424
 H         3.951197         1.295445         3.524345
 H         5.124968         1.706262         2.189295
 H         3.661554         2.781321         2.520429
 H         2.784668        -1.025772        -0.559402
 H         2.865650         1.919596        -0.474739
 H         1.004503         1.850873         2.052214
 H        -0.915941        -0.716463        -0.240707
 H        -0.450549         0.997384        -0.074922
 H         0.381526        -0.119427        -1.303349
 H         1.463486        -1.523971         2.133997
