19
Iteration:  1797
 C         3.957900         1.755737         2.611710
 C         3.104952         0.869908         1.751505
 O         3.450561        -0.542532         1.382067
 C         2.566494        -0.353078         0.187133
 C         2.669265         1.248195         0.391744
 C         1.625613         1.109246         1.455760
 C         1.088704        -0.267317         0.795884
 C        -0.054658        -0.041457        -0.276784
 O         0.624755        -1.317024         1.678268
 H         3.801580         1.629940         3.691243
 H         4.963993         1.548389         2.451485
 H         3.632366         2.798087         2.437047
 H         2.998624        -0.915692        -0.679079
 H         2.967825         2.117824        -0.253027
 H         0.849283         1.766355         1.792072
 H        -0.045228         0.977902        -0.448152
 H         0.202319        -0.489103        -1.355852
 H        -1.058958        -0.343798         0.110808
 H         1.396301        -1.466997         2.372236
