19
Iteration:  1456charge 0 multiplicity 1
 C         3.944413         1.582915         2.692001
 C         3.041411         0.914347         1.722735
 O         3.425224        -0.455289         1.338095
 C         2.550306        -0.358148         0.175425
 C         2.655912         1.174658         0.282062
 C         1.611698         1.169278         1.368260
 C         1.074148        -0.230512         0.802496
 C         0.017107        -0.124768        -0.245117
 O         0.658892        -1.179704         1.836165
 H         3.536695         1.565119         3.719494
 H         5.020425         1.165148         2.603661
 H         4.040733         2.591182         2.340215
 H         2.741099        -1.104339        -0.698376
 H         3.098280         1.913460        -0.415905
 H         1.125999         1.991293         1.686838
 H        -0.959232        -0.696083         0.030017
 H        -0.277409         0.921289        -0.503820
 H         0.378461        -0.514293        -1.204849
 H         1.617351        -1.469102         2.172215
