19
Iteration:  2690charge 0 multiplicity 1
 C         3.914774         1.661223         2.728097
 C         3.099737         0.937914         1.739058
 O         3.383026        -0.518906         1.366581
 C         2.562551        -0.282200         0.179176
 C         2.689542         1.262630         0.339043
 C         1.551351         1.106711         1.314061
 C         1.035511        -0.262451         0.818135
 C        -0.022969        -0.181499        -0.284867
 O         0.751438        -1.236545         1.764227
 H         4.201533         1.125957         3.647835
 H         4.933968         1.659273         2.233396
 H         3.441665         2.581615         3.038057
 H         2.903960        -0.765106        -0.713486
 H         2.849422         2.186817        -0.311613
 H         0.997662         2.064762         1.757006
 H         0.441571         0.656768        -1.034117
 H        -0.043990        -1.100130        -0.894652
 H        -0.973323         0.206140         0.033497
 H         1.539319        -1.705430         2.248126
