19
Iteration:  4926
 C         3.938374         1.883770         2.563026
 C         3.043208         0.915757         1.794656
 O         3.192342        -0.553870         1.677806
 C         2.634687        -0.438659         0.268932
 C         2.805788         1.073299         0.314250
 C         1.627046         1.104542         1.312274
 C         1.167645        -0.232605         0.696170
 C         0.008164        -0.040462        -0.313104
 O         0.657634        -1.224396         1.645963
 H         3.856847         1.662316         3.658773
 H         5.018719         1.753815         2.283665
 H         3.641567         2.906058         2.323118
 H         3.080033        -1.144664        -0.475116
 H         3.061496         1.883213        -0.444709
 H         0.880287         1.845523         1.559725
 H         0.316742         0.534964        -1.125417
 H        -0.185106        -1.042219        -0.790680
 H        -0.951975         0.178761         0.121149
 H         1.389061        -1.582775         2.172120
