19
Iteration:  4938
 C         3.920691         1.860346         2.534224
 C         3.082573         0.908811         1.739921
 O         3.347538        -0.520771         1.704783
 C         2.586451        -0.423351         0.340815
 C         2.733893         1.099229         0.337336
 C         1.587093         1.108466         1.298353
 C         1.088257        -0.272921         0.744998
 C         0.099871        -0.006607        -0.349654
 O         0.564146        -1.320796         1.614203
 H         3.727135         2.038757         3.579640
 H         4.958972         1.484497         2.371794
 H         3.882030         2.841863         2.035617
 H         2.904744        -1.128255        -0.454099
 H         3.132832         1.863257        -0.362350
 H         1.206217         2.075678         1.493938
 H         0.229247         0.828340        -0.904259
 H        -0.003501        -0.945974        -0.963254
 H        -0.805775         0.231606         0.234029
 H         1.398676        -1.389258         2.210835
