19
Iteration:  2416charge 0 multiplicity 1
 C         3.680352         1.494002         2.868823
 C         3.058513         0.924088         1.616028
 O         3.315396        -0.575516         1.386027
 C         2.544646        -0.250824         0.122350
 C         2.747987         1.292591         0.209355
 C         1.573944         1.276181         1.246817
 C         1.105316        -0.126820         0.739813
 C        -0.076446        -0.215794        -0.121178
 O         1.018587        -1.201281         1.750185
 H         3.051242         1.260159         3.797791
 H         4.729446         1.188239         3.151895
 H         3.841919         2.526443         2.642121
 H         2.952020        -1.055189        -0.564317
 H         3.239755         2.105957        -0.425673
 H         0.858503         1.810754         1.857366
 H         0.089585         0.252168        -1.031313
 H        -0.246324        -1.314998        -0.137017
 H        -1.016707         0.272580         0.413467
 H         1.963073        -1.597094         2.009661
