19
Iteration:  2714charge 0 multiplicity 1
 C         3.930684         1.791163         2.535328
 C         3.107290         0.875581         1.729184
 O         3.459500        -0.485461         1.442266
 C         2.570205        -0.341350         0.209690
 C         2.600708         1.160112         0.349422
 C         1.514545         1.015079         1.533129
 C         1.124991        -0.187560         0.800147
 C         0.084016        -0.034180        -0.289041
 O         0.647965        -1.313611         1.640996
 H         4.147113         1.332345         3.509056
 H         4.967563         1.898606         2.156814
 H         3.275811         2.655006         2.793724
 H         2.647347        -1.109706        -0.543595
 H         2.906335         2.033198        -0.265161
 H         0.812427         1.620039         2.111076
 H         0.363093         0.824088        -1.104130
 H        -0.180286        -0.972003        -0.858356
 H        -0.725580         0.410214         0.234690
 H         1.291792        -1.523848         2.305736
