19
Iteration:  3687charge 0 multiplicity 1
 C         3.821551         1.712597         2.632082
 C         2.989742         0.891120         1.689589
 O         3.423500        -0.460854         1.487310
 C         2.548783        -0.385826         0.254481
 C         2.611024         1.185166         0.283608
 C         1.582807         1.107505         1.384136
 C         1.135823        -0.228292         0.834244
 C         0.017775        -0.073743        -0.269120
 O         0.826354        -1.268540         1.661126
 H         4.016917         0.989970         3.493672
 H         4.772151         1.931376         2.139373
 H         3.203384         2.604908         3.008354
 H         2.847893        -1.024508        -0.598946
 H         2.987228         1.967229        -0.376815
 H         1.076221         1.975729         1.772536
 H         0.250340         0.847081        -0.762836
 H        -0.032884        -1.008052        -0.846218
 H        -0.914813         0.196135         0.132795
 H         1.719285        -1.580059         2.044557
