19
Iteration:   169charge 0 multiplicity 1
 C         3.965496         1.514507         2.807983
 C         3.061558         0.980527         1.613984
 O         3.238786        -0.504714         1.487018
 C         2.493713        -0.387117         0.210426
 C         2.731250         1.202987         0.151989
 C         1.604675         1.261750         1.125643
 C         1.125951        -0.141578         0.756288
 C        -0.069878        -0.203707        -0.114491
 O         0.878675        -1.137874         1.762915
 H         3.829203         0.991843         3.732585
 H         4.969654         1.161445         2.552494
 H         3.727728         2.560314         3.049244
 H         2.714322        -1.311090        -0.464328
 H         3.058293         1.820199        -0.650885
 H         0.870792         1.994688         1.642927
 H         0.105160        -0.616417        -1.088179
 H        -0.865721        -0.722622         0.463832
 H        -0.548606         0.717410        -0.129522
 H         1.720533        -1.298345         2.351988
