19
Iteration:  1532charge 0 multiplicity 1
 C         3.807169         1.496555         2.812087
 C         3.144061         0.909208         1.606706
 O         3.399400        -0.438110         1.385765
 C         2.586772        -0.325737         0.169350
 C         2.668856         1.202785         0.164872
 C         1.641711         1.137067         1.302161
 C         1.129397        -0.235378         0.823035
 C        -0.070280        -0.113751        -0.161048
 O         0.756085        -1.145641         1.764866
 H         3.669864         0.744963         3.581874
 H         4.882065         1.767996         2.670231
 H         3.323278         2.408061         3.029400
 H         2.898151        -1.135220        -0.585406
 H         2.946228         2.064591        -0.530190
 H         1.040015         1.973538         1.584258
 H        -0.929385         0.264879         0.440601
 H         0.164898         0.464828        -1.036774
 H        -0.527322        -1.020194        -0.488882
 H         1.570526        -1.303697         2.401094
