19
Iteration:  1060
 C         3.773855         1.532387         2.783374
 C         3.115747         0.838029         1.661213
 O         3.349506        -0.636308         1.395630
 C         2.492084        -0.278447         0.144394
 C         2.749037         1.282119         0.271375
 C         1.597725         1.183081         1.179065
 C         1.130582        -0.178049         0.761865
 C        -0.098177        -0.246475        -0.183109
 O         0.899012        -1.027379         1.834970
 H         3.375333         1.221689         3.721776
 H         4.777886         1.425368         2.670371
 H         3.586528         2.637280         2.797928
 H         2.826412        -0.840924        -0.692357
 H         3.169542         2.047447        -0.470912
 H         1.152637         1.926072         1.722969
 H        -1.008680        -0.405247         0.479047
 H        -0.252299         0.672832        -0.674686
 H         0.045975        -0.891677        -0.967816
 H         1.637908        -1.031807         2.389992
