19
Iteration:  1943
 C         3.688504         1.322599         2.940963
 C         3.062466         0.965876         1.607478
 O         3.450477        -0.439041         1.314168
 C         2.574092        -0.297051         0.086931
 C         2.677200         1.303212         0.109328
 C         1.626557         1.174185         1.208266
 C         1.072643        -0.192449         0.782287
 C        -0.077227        -0.182899        -0.088493
 O         0.916139        -1.094637         1.866100
 H         3.160090         0.642510         3.620659
 H         4.846194         1.301367         3.010170
 H         3.340996         2.293987         3.340937
 H         2.701220        -1.004564        -0.734871
 H         3.016740         2.049514        -0.663280
 H         1.048636         2.074328         1.704071
 H         0.281452         0.206093        -1.141709
 H        -0.330809        -1.303587        -0.266278
 H        -0.918703         0.220881         0.463432
 H         1.918778        -1.316380         2.101540
