19
Iteration:  2827
 C         3.818153         1.480162         2.801769
 C         3.063433         0.926902         1.677488
 O         3.388894        -0.514952         1.316062
 C         2.500105        -0.317709         0.185948
 C         2.713366         1.309795         0.293439
 C         1.602624         1.171083         1.326784
 C         1.073265        -0.162022         0.757818
 C        -0.076800        -0.207830        -0.342048
 O         0.922417        -1.129290         1.901181
 H         3.505754         1.004833         3.779457
 H         4.905888         1.493355         2.661707
 H         3.492983         2.542216         2.912106
 H         2.682241        -1.054261        -0.659201
 H         2.806389         2.141153        -0.486997
 H         0.915497         2.000971         1.708332
 H         0.052793         0.396356        -1.184288
 H        -0.023829        -1.270939        -0.714302
 H        -1.123636        -0.172576         0.224179
 H         1.895321        -1.435858         1.958081
