19
Iteration:  3688
 C         3.824821         1.709355         2.640641
 C         2.993096         0.886709         1.684939
 O         3.425002        -0.462182         1.483561
 C         2.545068        -0.385029         0.257669
 C         2.618056         1.189579         0.288153
 C         1.576900         1.116084         1.389999
 C         1.129536        -0.235037         0.825761
 C         0.018002        -0.078823        -0.275429
 O         0.835508        -1.259311         1.666195
 H         4.019845         0.990143         3.452114
 H         4.776573         1.940395         2.156309
 H         3.199628         2.589285         3.009365
 H         2.858893        -1.055582        -0.567781
 H         2.956122         1.939032        -0.385169
 H         1.028511         1.994436         1.787419
 H         0.229121         0.787508        -0.797416
 H        -0.057459        -0.980081        -0.851098
 H        -0.943805         0.206974         0.137119
 H         1.713314        -1.569902         2.012329
