19
Iteration:  4305
 C         3.864662         2.027030         2.651025
 C         3.082750         0.966986         1.804814
 O         3.469324        -0.508340         1.390324
 C         2.724421        -0.321574         0.195462
 C         2.644886         1.163748         0.335579
 C         1.618748         1.006807         1.423342
 C         1.114250        -0.287906         0.897227
 C        -0.017240        -0.053736        -0.246155
 O         0.564237        -1.484859         1.589935
 H         3.050742         2.337370         3.360354
 H         4.710341         1.559899         3.142963
 H         4.149982         2.798587         1.967430
 H         2.937100        -0.917930        -0.703726
 H         2.947114         1.978591        -0.369587
 H         1.101087         1.909154         1.854017
 H         0.112477         1.071454        -0.752568
 H         0.189057        -0.849006        -1.045659
 H        -0.984800        -0.194808         0.213015
 H         1.273543        -2.095389         2.003637
