19
Iteration:  3085charge 0 multiplicity 1
 C         3.765006         1.406723         2.882295
 C         3.052529         0.930447         1.614835
 O         3.288011        -0.476294         1.355561
 C         2.546026        -0.247007         0.068758
 C         2.736221         1.346432         0.245360
 C         1.631159         1.230915         1.196739
 C         1.122003        -0.144647         0.779512
 C        -0.028913        -0.324104        -0.106300
 O         0.898046        -1.140227         1.795708
 H         3.756040         0.484000         3.531881
 H         4.826687         1.669767         2.689970
 H         3.235761         2.287132         3.342500
 H         3.089812        -0.904595        -0.601052
 H         2.913863         2.033283        -0.497728
 H         1.133996         2.025767         1.848637
 H         0.188775        -0.068466        -1.245104
 H        -0.384771        -1.372455        -0.291051
 H        -0.790238         0.203511         0.286485
 H         1.579966        -1.133394         2.420084
