19
Iteration:  1534charge 0 multiplicity 1
 C         3.797182         1.494428         2.798863
 C         3.147197         0.910308         1.617732
 O         3.404092        -0.428069         1.388679
 C         2.592103        -0.324389         0.157308
 C         2.659916         1.203776         0.168164
 C         1.660714         1.112062         1.306852
 C         1.131643        -0.245963         0.830211
 C        -0.075581        -0.095858        -0.162675
 O         0.761281        -1.142241         1.768771
 H         3.723068         0.723828         3.615976
 H         4.864827         1.716363         2.604753
 H         3.255042         2.478544         3.037424
 H         2.824811        -1.135143        -0.558229
 H         2.930374         2.021456        -0.544468
 H         0.974532         1.975079         1.654457
 H        -0.909547         0.308273         0.356412
 H         0.214272         0.494876        -1.140976
 H        -0.551809        -1.086622        -0.473785
 H         1.490398        -1.285005         2.414830
