19
Iteration:   506charge 0 multiplicity 1
 C         4.085078         1.772207         2.509448
 C         3.093292         0.973761         1.640340
 O         3.482412        -0.452414         1.472167
 C         2.557251        -0.423346         0.252992
 C         2.540711         1.167535         0.262009
 C         1.581427         1.017281         1.542139
 C         1.126182        -0.331532         0.852891
 C         0.119353         0.066965        -0.292458
 O         0.467827        -1.322342         1.707266
 H         3.741749         1.395717         3.546413
 H         5.115572         1.779157         2.172016
 H         3.763841         2.840135         2.600243
 H         2.894876        -1.172334        -0.479589
 H         2.631331         2.062220        -0.338253
 H         0.925025         1.708310         2.040475
 H        -0.871021        -0.266040        -0.044700
 H         0.044833         1.104218        -0.607451
 H         0.485692        -0.516864        -1.185823
 H         1.233477        -1.723891         2.307494
