19
Iteration:  1749
 C         3.859393         1.413635         2.872665
 C         3.053655         0.950770         1.625759
 O         3.281854        -0.472727         1.328597
 C         2.543564        -0.228446         0.156996
 C         2.751385         1.294984         0.230449
 C         1.553379         1.229531         1.192816
 C         1.041473        -0.148537         0.837921
 C        -0.036314        -0.244387        -0.203642
 O         0.904170        -1.220970         1.841173
 H         3.914071         0.656516         3.655163
 H         4.971576         1.313122         2.674674
 H         3.513426         2.339718         3.342338
 H         2.658481        -0.891883        -0.685886
 H         3.012495         2.119628        -0.360825
 H         1.088510         2.203765         1.627826
 H         0.223392         0.421497        -1.145056
 H        -0.073352        -1.225445        -0.482377
 H        -0.998292         0.107497         0.160170
 H         1.925212        -1.414538         2.026404
