19
Iteration:   671
 C         3.973675         1.573244         2.720777
 C         3.069406         0.899021         1.705610
 O         3.304503        -0.506588         1.437662
 C         2.586521        -0.268346         0.109446
 C         2.677413         1.241555         0.219587
 C         1.610523         1.138594         1.321440
 C         1.049968        -0.171463         0.837474
 C        -0.088232        -0.194455        -0.228082
 O         0.810273        -1.176721         1.781723
 H         3.704515         1.089023         3.636779
 H         5.036805         1.598174         2.377779
 H         3.640920         2.691248         2.847627
 H         2.893185        -0.983086        -0.601286
 H         3.077610         1.973362        -0.493927
 H         0.920161         1.864859         2.003865
 H        -1.114134        -0.284773         0.134119
 H         0.100452         0.713769        -0.728656
 H         0.037012        -1.110698        -1.006703
 H         1.726553        -1.498267         2.173579
