19
Iteration:  2632charge 0 multiplicity 1
 C         3.680744         1.398607         2.977420
 C         3.112756         0.929648         1.625854
 O         3.369619        -0.425541         1.251863
 C         2.555574        -0.242929         0.119029
 C         2.722023         1.302773         0.212467
 C         1.604779         1.197018         1.179770
 C         1.157332        -0.200492         0.747877
 C        -0.109221        -0.273426        -0.191608
 O         0.913212        -1.114448         1.929790
 H         3.109145         0.940106         3.836936
 H         4.730042         1.156571         2.920520
 H         3.831156         2.481820         2.930163
 H         2.928055        -0.806423        -0.812683
 H         3.405868         1.900503        -0.315075
 H         0.965814         1.875826         1.632329
 H        -0.146152         0.392537        -0.977965
 H        -0.323939        -1.245832        -0.636689
 H        -1.094091        -0.104875         0.446321
 H         1.799956        -1.537136         2.102262
