19
Iteration:  4509
 C         3.956350         1.873952         2.520211
 C         3.071617         0.938719         1.805432
 O         3.315460        -0.530573         1.559283
 C         2.633585        -0.376272         0.334971
 C         2.629242         1.227882         0.419335
 C         1.591492         1.107406         1.426379
 C         1.094968        -0.251382         0.685147
 C         0.010796        -0.208448        -0.275302
 O         0.719832        -1.279500         1.503793
 H         4.859432         1.318848         2.993051
 H         4.362501         2.690855         1.993606
 H         3.453232         2.208937         3.430864
 H         2.875853        -1.079681        -0.479856
 H         2.935520         2.081431        -0.119497
 H         0.940391         1.879801         1.927567
 H         0.103353         0.630206        -1.092064
 H        -0.134927        -1.126585        -0.748367
 H        -0.931063        -0.158473         0.233997
 H         1.524280        -1.496171         1.945260
