19
Iteration:   715
 C         4.030254         1.727996         2.510890
 C         3.103294         0.962309         1.697042
 O         3.349590        -0.433546         1.531219
 C         2.550690        -0.373399         0.314116
 C         2.611282         1.181483         0.299741
 C         1.569847         1.110919         1.443562
 C         1.100398        -0.287781         0.832170
 C         0.060104         0.031981        -0.220438
 O         0.612738        -1.408901         1.573814
 H         4.130121         1.386560         3.523670
 H         5.043810         1.594467         2.012077
 H         3.985495         2.870937         2.595403
 H         2.929903        -0.855474        -0.568751
 H         2.905450         1.784765        -0.547411
 H         1.002798         1.835774         2.191178
 H        -0.920520         0.134426         0.247976
 H         0.256214         0.828275        -0.897585
 H         0.069183        -1.012683        -0.919162
 H         1.293632        -1.600321         2.246958
