19
Iteration:  3162
 C         3.928433         1.745409         2.644179
 C         3.022735         0.944714         1.733069
 O         3.490394        -0.475527         1.439810
 C         2.552521        -0.317484         0.255285
 C         2.639678         1.163096         0.295643
 C         1.595554         1.170490         1.408801
 C         1.056467        -0.249366         0.846173
 C        -0.011244        -0.074766        -0.220865
 O         0.709229        -1.417998         1.582992
 H         3.695554         1.682416         3.761788
 H         4.925231         1.378645         2.379795
 H         3.857793         2.795101         2.350496
 H         2.633180        -0.974801        -0.601277
 H         3.036767         1.841838        -0.420533
 H         1.081442         1.957983         1.953911
 H         0.227715         1.024233        -0.681652
 H         0.002845        -0.752405        -1.133120
 H        -0.999339        -0.052739         0.164959
 H         1.348632        -1.463362         2.399988
