19
Iteration:  1208charge 0 multiplicity 1
 C         4.023928         1.710421         2.589121
 C         3.044663         0.955216         1.684206
 O         3.397639        -0.504671         1.528645
 C         2.545785        -0.368124         0.263425
 C         2.669800         1.181567         0.232486
 C         1.519755         1.110321         1.390504
 C         1.074749        -0.227259         0.874879
 C         0.020020         0.002120        -0.227656
 O         0.687651        -1.363564         1.617680
 H         4.180259         1.161363         3.540988
 H         5.049471         1.762747         2.162653
 H         3.753142         2.737690         2.741278
 H         2.780040        -1.065165        -0.607266
 H         2.827140         2.021933        -0.479380
 H         1.132177         1.976847         1.747205
 H        -0.904998         0.173823         0.224315
 H         0.417643         0.808850        -0.910051
 H        -0.238435        -0.913629        -0.793707
 H         1.263185        -1.416531         2.438428
