19
Iteration:  4533charge 0 multiplicity 1
 C         4.044597         1.819199         2.618131
 C         3.034439         0.929062         1.792634
 O         3.383065        -0.410796         1.559672
 C         2.579560        -0.309291         0.247202
 C         2.672090         1.212822         0.302967
 C         1.531130         1.077754         1.433245
 C         1.046647        -0.243737         0.799559
 C         0.029559        -0.186149        -0.404520
 O         0.671941        -1.396655         1.626779
 H         5.068023         1.230856         2.743592
 H         4.225949         2.820497         2.121252
 H         3.709137         1.986269         3.657690
 H         2.944348        -0.884300        -0.615861
 H         3.042763         2.005586        -0.354432
 H         0.776910         1.748102         1.768419
 H         0.389362         0.556716        -1.182643
 H        -0.218721        -1.157042        -0.841107
 H        -0.914528         0.110129        -0.082775
 H         1.248528        -1.363918         2.424827
