19
Iteration:  2088charge 0 multiplicity 1
 C         3.926449         1.821837         2.583423
 C         3.146611         0.897019         1.719691
 O         3.499174        -0.442422         1.392023
 C         2.517558        -0.376829         0.219720
 C         2.576800         1.179677         0.372899
 C         1.618435         1.013734         1.613413
 C         1.104421        -0.251694         0.894829
 C         0.115133        -0.014969        -0.347374
 O         0.544051        -1.366913         1.566888
 H         4.381659         1.470300         3.556428
 H         4.787526         2.154883         1.974154
 H         3.292430         2.797314         2.653861
 H         2.574626        -1.132752        -0.534994
 H         2.645057         2.013537        -0.410706
 H         1.209470         1.645386         2.305105
 H         0.565453         0.550172        -1.215983
 H        -0.085328        -1.050457        -0.680483
 H        -0.828638         0.608583         0.019618
 H         1.113569        -1.606140         2.397641
