19
Iteration:  3137charge 0 multiplicity 1
 C         3.849719         1.595482         2.763531
 C         3.075145         0.946271         1.646267
 O         3.379667        -0.516246         1.371249
 C         2.571009        -0.289051         0.148636
 C         2.618806         1.296276         0.278374
 C         1.633300         1.022920         1.360514
 C         1.125598        -0.219878         0.788496
 C         0.052022        -0.132344        -0.215883
 O         0.755631        -1.205869         1.785742
 H         3.429221         1.367705         3.694687
 H         4.936246         1.464266         2.702472
 H         3.522625         2.645106         2.524472
 H         2.671181        -1.097090        -0.626308
 H         2.673028         2.099285        -0.430690
 H         0.901018         1.740051         1.855555
 H         0.190962         0.827139        -0.879814
 H         0.096952        -0.939071        -0.963148
 H        -0.918050        -0.124842         0.224904
 H         1.642113        -1.331126         2.234267
