19
Iteration:   690
 C         4.051789         1.590790         2.594598
 C         3.070130         0.984772         1.708595
 O         3.324652        -0.447418         1.492603
 C         2.494900        -0.388278         0.304938
 C         2.663433         1.246177         0.258445
 C         1.535831         1.162421         1.395745
 C         1.092268        -0.249019         0.779834
 C        -0.005254        -0.113201        -0.245164
 O         0.772643        -1.319167         1.654239
 H         4.001595         1.171231         3.685396
 H         5.070816         1.547324         2.299397
 H         3.874941         2.688707         2.852988
 H         2.633455        -1.018311        -0.552200
 H         2.850674         2.073834        -0.459896
 H         1.049287         2.210021         1.453934
 H        -0.962085        -0.107053         0.444579
 H        -0.082913         0.924573        -0.815914
 H         0.030634        -0.903952        -1.108853
 H         1.550262        -1.395727         2.375659
