19
Iteration:  4433
 C         3.652238         1.592523         2.824872
 C         3.111709         0.920994         1.622566
 O         3.484292        -0.462809         1.329716
 C         2.645592        -0.234057         0.150095
 C         2.706316         1.242071         0.260807
 C         1.558624         1.174592         1.214374
 C         1.112055        -0.283800         0.842971
 C         0.013221        -0.313424        -0.202677
 O         0.744481        -1.131745         1.824712
 H         4.021239         0.669895         3.497478
 H         4.606636         2.099133         2.662201
 H         2.832322         2.116314         3.363638
 H         2.973751        -0.879145        -0.688058
 H         3.000178         2.104953        -0.340967
 H         1.077866         2.150642         1.577422
 H         0.313247         0.422628        -1.022554
 H        -0.154122        -1.268278        -0.627720
 H        -0.946182         0.022510         0.137090
 H         1.436178        -1.372859         2.496898
