19
Iteration:  2387charge 0 multiplicity 1
 C         3.738234         1.467270         2.877885
 C         3.047111         0.909522         1.668286
 O         3.460458        -0.530146         1.301138
 C         2.603099        -0.197764         0.068726
 C         2.723240         1.252030         0.248747
 C         1.612851         1.191638         1.310531
 C         1.075927        -0.200698         0.751761
 C        -0.119743        -0.306028        -0.205194
 O         0.861231        -1.106881         1.837076
 H         3.204024         1.296778         3.828951
 H         4.849009         1.186240         2.919275
 H         3.609683         2.567109         2.758529
 H         3.020303        -0.797102        -0.708361
 H         2.740819         2.231883        -0.319686
 H         1.090400         1.996337         1.724443
 H         0.017329         0.295005        -1.215055
 H        -0.201235        -1.352099        -0.510693
 H        -0.927794         0.141288         0.282684
 H         1.702126        -1.028878         2.460571
