19
Iteration:  2548charge 0 multiplicity 1
 C         4.024863         1.716541         2.564945
 C         3.022606         1.017716         1.736803
 O         3.452904        -0.457171         1.510343
 C         2.576505        -0.391273         0.298871
 C         2.502395         1.240274         0.323930
 C         1.495855         1.096060         1.503656
 C         1.167060        -0.304990         0.778731
 C         0.048098        -0.082047        -0.256056
 O         0.673566        -1.329548         1.535512
 H         4.152897         1.194029         3.527073
 H         5.018996         1.748014         2.083505
 H         3.560250         2.588429         2.963856
 H         3.017624        -0.864447        -0.564616
 H         2.755968         2.012653        -0.353069
 H         0.920007         1.814978         2.038093
 H         0.363990         0.764555        -0.962998
 H        -0.097908        -0.919247        -0.904272
 H        -0.777802         0.286938         0.346878
 H         1.422610        -1.814162         1.769884
