19
Iteration:  3968
 C         3.680752         1.515096         2.804649
 C         2.984937         0.959961         1.667372
 O         3.307536        -0.431742         1.410215
 C         2.609419        -0.295483         0.113831
 C         2.740291         1.270670         0.168632
 C         1.572645         1.199371         1.271846
 C         1.166479        -0.188330         0.726398
 C        -0.030314        -0.220674        -0.121959
 O         1.004755        -1.233369         1.770491
 H         3.341133         0.858767         3.718152
 H         4.771009         1.436559         2.970843
 H         3.211184         2.443001         3.207532
 H         2.773096        -1.107036        -0.591199
 H         3.270292         2.086379        -0.409197
 H         0.767838         1.878548         1.648053
 H        -0.258550         0.704769        -0.809039
 H        -0.189563        -1.137897        -0.711012
 H        -0.918613        -0.297561         0.469152
 H         1.967800        -1.368403         2.124990
