19
Iteration:  1389charge 0 multiplicity 1
 C         3.999368         1.811303         2.449748
 C         3.103699         0.856595         1.756081
 O         3.460258        -0.530666         1.465564
 C         2.565153        -0.390968         0.262406
 C         2.641310         1.193932         0.407414
 C         1.563790         1.103212         1.456695
 C         1.031189        -0.302699         0.795627
 C         0.049635         0.059513        -0.249184
 O         0.558890        -1.310910         1.658226
 H         4.230003         1.422793         3.445351
 H         4.944780         1.911271         1.775721
 H         3.564330         2.771027         2.498278
 H         2.904903        -1.198948        -0.504126
 H         3.188956         1.832405        -0.236490
 H         1.078616         1.944450         2.047348
 H        -1.042523         0.136837         0.253477
 H         0.470538         0.841915        -0.818752
 H        -0.023494        -0.785449        -0.897808
 H         1.332737        -1.653844         2.003335
