19
Iteration:   504charge 0 multiplicity 1
 C         4.095824         1.774411         2.513630
 C         3.092079         0.999615         1.633859
 O         3.488254        -0.469079         1.474721
 C         2.575043        -0.447925         0.243581
 C         2.526664         1.173602         0.250209
 C         1.569319         1.037334         1.569561
 C         1.115563        -0.340359         0.851342
 C         0.134700         0.058133        -0.296109
 O         0.471016        -1.318458         1.709980
 H         3.706464         1.396269         3.574551
 H         5.102682         1.785572         2.202628
 H         3.743181         2.766322         2.622444
 H         2.887673        -1.195897        -0.551237
 H         2.615332         2.088737        -0.364124
 H         0.929543         1.663572         1.966545
 H        -0.875631        -0.225372         0.019081
 H        -0.019614         1.129235        -0.631383
 H         0.484138        -0.444297        -1.153538
 H         1.178001        -1.692916         2.257592
