19
Iteration:  1977
 C         3.691165         1.511915         2.884266
 C         3.089871         0.828547         1.670625
 O         3.447435        -0.539640         1.254923
 C         2.566582        -0.230298         0.049142
 C         2.777040         1.318295         0.221469
 C         1.650529         1.170761         1.215853
 C         1.096652        -0.225197         0.736048
 C        -0.127560        -0.219504        -0.057066
 O         0.854326        -1.146892         1.843255
 H         3.167584         1.064770         3.724621
 H         4.793020         1.438043         3.193315
 H         3.359497         2.603399         2.789624
 H         2.874307        -0.830409        -0.759412
 H         3.158595         2.135081        -0.347647
 H         1.064718         1.899405         1.836093
 H        -0.182256         0.716162        -0.797816
 H        -0.176712        -1.181648        -0.636508
 H        -1.087204        -0.056001         0.493132
 H         1.692045        -0.925792         2.365553
