19
Iteration:   282charge 0 multiplicity 1
 C         4.128843         1.712223         2.534267
 C         3.053094         1.009458         1.763642
 O         3.345046        -0.404970         1.530573
 C         2.511356        -0.372079         0.295355
 C         2.617395         1.169895         0.234889
 C         1.564628         1.065920         1.368939
 C         1.086231        -0.276705         0.813986
 C         0.026979         0.003315        -0.138076
 O         0.652415        -1.396633         1.575466
 H         4.505387         1.168744         3.490879
 H         5.059862         1.672719         2.082050
 H         3.744511         2.718174         2.822731
 H         2.891535        -0.999915        -0.468114
 H         2.857877         1.920737        -0.551973
 H         0.854763         1.794165         1.743161
 H        -0.849543        -0.540062         0.166453
 H        -0.106216         1.038168        -0.368559
 H         0.244815        -0.499510        -1.137744
 H         1.380403        -1.460534         2.138143
