19
Iteration:  4580
 C         3.773643         1.666917         2.830716
 C         3.103249         0.992943         1.629970
 O         3.437104        -0.415578         1.389151
 C         2.567245        -0.405668         0.221566
 C         2.620059         1.179384         0.197451
 C         1.601029         1.064837         1.396128
 C         1.102125        -0.277815         0.794513
 C         0.095221        -0.130935        -0.354060
 O         0.708232        -1.162455         1.814224
 H         4.820210         1.876761         2.551739
 H         3.167627         2.644520         3.073360
 H         3.798463         0.807073         3.615391
 H         2.947849        -1.094278        -0.547357
 H         2.900466         1.844288        -0.641941
 H         1.125175         1.916086         1.929072
 H         0.532164         0.436593        -1.089220
 H        -0.068617        -1.191337        -0.750279
 H        -0.983801         0.142091        -0.115869
 H         1.497471        -1.468181         2.214549
