19
Iteration:  1200
 C         4.020233         1.754818         2.533838
 C         3.115149         0.939752         1.680674
 O         3.389491        -0.523916         1.525058
 C         2.548024        -0.364902         0.269271
 C         2.608536         1.185469         0.286253
 C         1.593518         1.080727         1.459771
 C         1.066658        -0.242463         0.816750
 C         0.045115        -0.013422        -0.192947
 O         0.622815        -1.338803         1.594058
 H         4.108175         1.291513         3.523581
 H         4.930206         1.865261         2.032555
 H         3.634183         2.763164         2.885272
 H         2.909673        -1.012743        -0.498060
 H         2.781172         1.894274        -0.485940
 H         0.960227         1.899666         1.790186
 H        -0.937702         0.485436         0.070928
 H         0.454199         0.594951        -0.922236
 H        -0.012827        -0.866808        -0.744284
 H         1.416691        -1.464956         2.288524
