19
Iteration:  3343
 C         3.729762         1.641460         2.806940
 C         3.047330         0.912755         1.727763
 O         3.462119        -0.480945         1.379331
 C         2.565655        -0.338477         0.198516
 C         2.714067         1.239208         0.294409
 C         1.603904         1.137787         1.307082
 C         1.116882        -0.235407         0.797286
 C        -0.173124        -0.169051        -0.224448
 O         0.893738        -1.207166         1.669549
 H         3.455381         1.386874         3.828750
 H         4.811914         1.316329         2.813868
 H         3.701067         2.750706         2.571064
 H         2.868581        -1.047546        -0.600508
 H         3.021155         2.038658        -0.427582
 H         1.216127         2.119865         1.511956
 H        -0.165674         0.571476        -0.922509
 H        -0.136136        -1.024815        -0.842282
 H        -1.135397        -0.183528         0.435893
 H         1.833803        -1.442179         2.044029
