19
Iteration:  3690
 C         3.828500         1.702337         2.656996
 C         3.005454         0.882569         1.678558
 O         3.426097        -0.466389         1.474933
 C         2.539752        -0.381143         0.261508
 C         2.632568         1.196010         0.297228
 C         1.561543         1.134377         1.401322
 C         1.114392        -0.247664         0.805391
 C         0.019001        -0.090437        -0.281854
 O         0.852208        -1.243827         1.678955
 H         4.030795         0.994858         3.390082
 H         4.787513         1.971794         2.194917
 H         3.221591         2.538912         3.004009
 H         2.873259        -1.113428        -0.494482
 H         2.902328         1.906650        -0.421532
 H         0.939312         2.006205         1.812338
 H         0.213088         0.720298        -0.921887
 H        -0.110801        -0.946205        -0.880646
 H        -1.004781         0.212127         0.161061
 H         1.696852        -1.547119         1.955343
