19
Iteration:   219charge 0 multiplicity 1
 C         3.842950         1.675151         2.675303
 C         3.106884         0.889523         1.633513
 O         3.425736        -0.624521         1.251745
 C         2.503802        -0.321475         0.236512
 C         2.637876         1.202249         0.295586
 C         1.651195         1.119999         1.416211
 C         1.134898        -0.247241         0.811114
 C         0.065528        -0.130340        -0.218290
 O         0.698477        -1.111654         1.822472
 H         3.426627         1.477199         3.693131
 H         5.012088         1.544255         2.609241
 H         3.507148         2.685237         2.503403
 H         2.740853        -0.927707        -0.595276
 H         2.782738         2.014184        -0.434353
 H         1.044115         1.965873         1.856089
 H        -0.227149        -1.208898        -0.498970
 H        -0.789183         0.429675         0.267500
 H         0.245764         0.532700        -1.124721
 H         1.369309        -1.258857         2.420787
