19
Iteration:  4979charge 0 multiplicity 1
 C         3.949827         1.832609         2.608243
 C         3.150753         0.947423         1.633672
 O         3.478942        -0.445185         1.571536
 C         2.545271        -0.409932         0.314217
 C         2.600041         1.130821         0.255285
 C         1.636301         1.074299         1.448455
 C         1.062865        -0.337062         0.869830
 C         0.281112        -0.122024        -0.394667
 O         0.397634        -1.235632         1.666423
 H         3.168007         2.341622         3.333220
 H         4.614172         1.170585         3.258543
 H         4.556910         2.588241         2.112070
 H         3.009295        -1.158083        -0.380259
 H         2.342307         1.849945        -0.596937
 H         0.990257         1.912950         1.615639
 H         0.497847         0.922230        -0.816366
 H         0.335064        -0.698123        -1.311589
 H        -0.781171        -0.154301        -0.123182
 H         0.937780        -1.545372         2.375883
