19
Iteration:  1477
 C         3.891343         1.580124         2.700554
 C         3.083408         0.861218         1.644545
 O         3.277454        -0.614728         1.437955
 C         2.553195        -0.298848         0.156851
 C         2.716898         1.263313         0.325539
 C         1.563143         1.179214         1.289034
 C         1.153076        -0.188710         0.768301
 C        -0.092008        -0.179961        -0.239264
 O         0.865817        -1.068592         1.798486
 H         3.515697         1.361176         3.705211
 H         4.984514         1.183301         2.646016
 H         3.969063         2.614634         2.583310
 H         2.833653        -1.075372        -0.668860
 H         2.968519         2.013295        -0.453217
 H         1.020430         1.764704         1.893220
 H        -0.984782        -0.717374         0.307768
 H        -0.566534         0.761609        -0.538931
 H         0.151371        -0.685637        -1.145643
 H         1.800604        -1.145073         2.228452
