19
Iteration:  4106
 C         3.911996         1.818228         2.640395
 C         3.024666         0.943830         1.700955
 O         3.419943        -0.497913         1.464635
 C         2.573235        -0.303784         0.330322
 C         2.668493         1.289355         0.373359
 C         1.461057         1.022895         1.501760
 C         1.153556        -0.226269         0.756698
 C         0.026698        -0.162041        -0.359330
 O         0.751401        -1.357217         1.580689
 H         4.486456         1.183863         3.297364
 H         4.578767         2.089730         1.887427
 H         3.313280         2.545395         3.200050
 H         2.760969        -0.905728        -0.571770
 H         2.845823         2.104906        -0.388772
 H         0.991406         1.912595         2.019234
 H         0.056750         0.769170        -1.051951
 H         0.081358        -1.212476        -0.679791
 H        -0.900386        -0.037472         0.299082
 H         1.620608        -1.623969         2.021982
