19
Iteration:  3680
 C         3.799087         1.714889         2.606632
 C         3.012152         0.933185         1.724128
 O         3.401194        -0.466325         1.496971
 C         2.585216        -0.358669         0.222184
 C         2.603196         1.171670         0.239031
 C         1.603541         1.066211         1.353439
 C         1.138238        -0.218643         0.850488
 C         0.066559        -0.028528        -0.220853
 O         0.767131        -1.349862         1.651101
 H         3.981546         1.258246         3.520203
 H         4.756934         1.963432         2.129422
 H         3.384064         2.656379         2.915380
 H         2.785345        -0.923911        -0.691302
 H         3.043482         1.980545        -0.248496
 H         1.100811         1.986768         1.807047
 H         0.347047         0.897321        -0.699031
 H         0.093474        -0.903000        -0.830136
 H        -0.992722         0.048479         0.308007
 H         1.522532        -1.539772         2.205927
