19
Iteration:  4218charge 0 multiplicity 1
 C         3.802082         1.552993         2.773542
 C         2.943422         0.948982         1.742539
 O         3.445483        -0.481113         1.358726
 C         2.577170        -0.187290         0.187613
 C         2.666155         1.327331         0.312199
 C         1.559206         1.162989         1.390442
 C         1.160131        -0.196222         0.765092
 C        -0.050813        -0.399155        -0.320224
 O         0.880593        -1.170482         1.730406
 H         3.295707         1.720119         3.774476
 H         4.717163         1.049898         2.948846
 H         4.103588         2.556791         2.591361
 H         2.702691        -0.745966        -0.735044
 H         2.736776         2.040497        -0.499154
 H         1.132402         1.891113         2.038086
 H        -0.020965         0.000130        -1.461608
 H        -0.098150        -1.524107        -0.369137
 H        -0.963094         0.032253         0.012588
 H         1.707345        -1.368962         2.144739
