19
Iteration:  1485
 C         3.862180         1.524878         2.707308
 C         3.109976         0.872292         1.692296
 O         3.241641        -0.553173         1.449801
 C         2.550726        -0.346064         0.110302
 C         2.746836         1.239960         0.335923
 C         1.609743         1.228527         1.303782
 C         1.078924        -0.154781         0.686356
 C        -0.121812        -0.199321        -0.192627
 O         0.921488        -1.089805         1.797278
 H         3.406551         1.223155         3.628201
 H         4.919867         1.324595         2.603273
 H         3.793107         2.574241         2.492080
 H         2.789884        -1.037268        -0.704724
 H         3.072614         1.904966        -0.395506
 H         1.129806         2.029850         1.913069
 H        -0.892714        -0.842933         0.303650
 H        -0.365374         0.715357        -0.595283
 H         0.028484        -0.790512        -1.077762
 H         1.882150        -1.060544         2.247910
