19
Iteration:  1662
 C         3.891891         1.660858         2.684942
 C         3.099381         0.864194         1.672596
 O         3.380908        -0.530640         1.418971
 C         2.530075        -0.285730         0.196754
 C         2.601119         1.272785         0.299582
 C         1.575070         1.057073         1.457268
 C         1.143644        -0.210174         0.804168
 C        -0.046591        -0.046768        -0.182331
 O         0.838127        -1.290198         1.606613
 H         3.572255         1.427031         3.701966
 H         5.021982         1.575423         2.595004
 H         3.558420         2.677123         2.536439
 H         2.653175        -0.949887        -0.678928
 H         2.660797         2.035875        -0.424581
 H         1.168004         1.892521         2.132123
 H         0.426549         0.372513        -1.202295
 H        -0.484328        -0.961729        -0.469847
 H        -0.774755         0.650903         0.224932
 H         1.575162        -1.604257         2.064614
