19
Iteration:   875
 C         3.766276         1.528239         2.729155
 C         3.145007         0.866202         1.660245
 O         3.472590        -0.503715         1.361264
 C         2.552050        -0.390185         0.137026
 C         2.692636         1.271775         0.262770
 C         1.682198         1.233370         1.292498
 C         1.093176        -0.212298         0.773953
 C        -0.070758        -0.184949        -0.227401
 O         0.708858        -1.105511         1.896585
 H         3.394915         1.183868         3.759670
 H         4.829043         1.543813         2.559396
 H         3.449510         2.657693         2.596501
 H         2.803531        -1.132930        -0.640103
 H         3.095364         1.970933        -0.429576
 H         1.174317         1.998341         2.032183
 H        -1.104516        -0.196051         0.357830
 H        -0.022060         0.760844        -0.864810
 H         0.064116        -0.931555        -0.983631
 H         1.503245        -1.714222         2.036347
