19
Iteration:   293
 C         4.085592         1.697064         2.527480
 C         3.060194         0.976205         1.680012
 O         3.318815        -0.406525         1.508300
 C         2.540032        -0.335039         0.302018
 C         2.706479         1.232207         0.305756
 C         1.589403         1.155696         1.401235
 C         1.105185        -0.315130         0.859493
 C        -0.033979        -0.040762        -0.221982
 O         0.670427        -1.442083         1.609446
 H         4.196822         1.043284         3.485803
 H         4.845022         1.809323         1.810240
 H         3.879624         2.754278         2.852815
 H         2.743097        -1.093272        -0.415270
 H         2.983598         1.885331        -0.537388
 H         0.925234         1.925832         1.848854
 H        -1.029470        -0.109537         0.236935
 H         0.012112         1.007116        -0.431974
 H         0.131510        -0.623198        -1.179538
 H         1.259170        -1.734000         2.286995
