19
Iteration:  4996charge 0 multiplicity 1
 C         3.912433         1.792955         2.641821
 C         3.103998         0.957539         1.716989
 O         3.472716        -0.440718         1.441028
 C         2.658484        -0.413430         0.311110
 C         2.655590         1.180927         0.314302
 C         1.551940         1.028069         1.368466
 C         1.096792        -0.273337         0.832562
 C         0.169801        -0.147860        -0.431075
 O         0.410159        -1.185191         1.768676
 H         3.331901         2.516365         3.151220
 H         4.324552         1.192518         3.425264
 H         4.754853         2.205416         2.056908
 H         2.862156        -1.080047        -0.513559
 H         3.083139         1.863555        -0.394341
 H         1.030743         1.825671         1.952595
 H         0.450530         0.726750        -1.079506
 H         0.457350        -1.024392        -1.082630
 H        -0.879441        -0.464206        -0.178550
 H         1.073813        -1.507522         2.350062
