19
Iteration:  1119charge 0 multiplicity 1
 C         3.973012         1.653979         2.706797
 C         3.106270         0.958969         1.615177
 O         3.394058        -0.402338         1.398984
 C         2.572641        -0.365395         0.232045
 C         2.637590         1.172604         0.267523
 C         1.597842         1.078619         1.372865
 C         1.107031        -0.242184         0.857335
 C        -0.003540        -0.086562        -0.266504
 O         0.652745        -1.277374         1.703790
 H         3.764209         1.092173         3.623734
 H         5.095431         1.385392         2.632562
 H         3.802525         2.697061         2.707971
 H         2.971044        -0.986159        -0.613473
 H         2.802018         1.961552        -0.424774
 H         1.130014         1.986508         1.887658
 H        -0.893110         0.297198         0.115293
 H         0.394586         0.525613        -1.127702
 H        -0.364978        -1.173688        -0.441030
 H         1.070791        -1.215705         2.654415
