19
Iteration:  2437charge 0 multiplicity 1
 C         3.711263         1.571510         2.836738
 C         3.052754         0.922188         1.664663
 O         3.374625        -0.416040         1.378573
 C         2.542902        -0.306143         0.133471
 C         2.707147         1.222365         0.287217
 C         1.647614         1.109341         1.307525
 C         1.109599        -0.237517         0.727657
 C        -0.105104        -0.149516        -0.153581
 O         0.941972        -1.224967         1.706610
 H         3.301146         1.215108         3.815101
 H         4.709367         1.126087         2.796706
 H         3.815907         2.630609         2.800006
 H         2.997955        -1.069413        -0.575553
 H         2.929919         1.910392        -0.564921
 H         1.112527         2.040910         1.553201
 H         0.126512         0.517945        -0.910848
 H        -0.382435        -1.105259        -0.623712
 H        -0.951380         0.415646         0.425705
 H         1.699278        -1.276026         2.358319
