19
Iteration:  1020
 C         3.795191         1.565645         2.777186
 C         3.194280         0.925024         1.588322
 O         3.457752        -0.453818         1.406347
 C         2.558928        -0.326197         0.194752
 C         2.671216         1.207496         0.154148
 C         1.642324         1.121487         1.299853
 C         1.126374        -0.256123         0.813664
 C        -0.011558        -0.140162        -0.189577
 O         0.632090        -1.125497         1.825634
 H         3.490544         0.861690         3.581853
 H         4.956716         1.500540         2.622805
 H         3.586491         2.636720         2.989739
 H         2.639015        -0.953631        -0.659301
 H         2.765349         1.984770        -0.591751
 H         1.162730         1.880738         1.920008
 H        -0.926827        -0.076451         0.386234
 H         0.213923         0.645244        -0.927230
 H        -0.094676        -1.146947        -0.848436
 H         1.463992        -1.488176         2.240135
