19
Iteration:  1969
 C         3.622522         1.400905         2.893878
 C         3.130716         0.855456         1.620166
 O         3.444157        -0.496822         1.256690
 C         2.636146        -0.266009         0.089714
 C         2.755064         1.330546         0.217989
 C         1.610415         1.132341         1.269511
 C         1.138377        -0.181455         0.733350
 C        -0.160783        -0.201888        -0.106184
 O         0.893704        -1.085379         1.839484
 H         3.141564         1.047507         3.833040
 H         4.702361         1.447439         2.965641
 H         3.364831         2.516763         2.780148
 H         2.717040        -0.912616        -0.771127
 H         3.088434         1.978776        -0.556435
 H         1.065127         1.863022         1.729103
 H        -0.247474         0.521802        -0.943120
 H        -0.333289        -1.191606        -0.479721
 H        -0.910876        -0.112475         0.808364
 H         1.643721        -0.943293         2.549690
