19
Iteration:   321charge 0 multiplicity 1
 C         4.001257         1.701139         2.643323
 C         3.111467         0.882733         1.707302
 O         3.367124        -0.511062         1.424519
 C         2.477773        -0.316273         0.241623
 C         2.592628         1.199370         0.314322
 C         1.596382         1.081164         1.425652
 C         1.087317        -0.201683         0.826384
 C        -0.002703        -0.098586        -0.226105
 O         0.765759        -1.240984         1.641876
 H         4.082069         1.245324         3.583071
 H         4.949629         1.958486         2.104512
 H         3.640177         2.729616         2.728421
 H         2.698101        -1.010027        -0.630097
 H         2.799136         1.864516        -0.544190
 H         0.972725         1.756962         1.881872
 H        -0.902709         0.354228         0.164558
 H         0.276388         0.552648        -1.073398
 H        -0.158130        -1.133801        -0.518338
 H         1.558847        -1.527299         2.140888
