19
Iteration:  3165charge 0 multiplicity 1
 C         3.945555         1.744392         2.631500
 C         3.029522         0.971417         1.764487
 O         3.495662        -0.485464         1.453326
 C         2.539369        -0.320920         0.262437
 C         2.627749         1.167369         0.294214
 C         1.595378         1.144918         1.411095
 C         1.066268        -0.241647         0.844134
 C        -0.011871        -0.058897        -0.234399
 O         0.705064        -1.426041         1.564270
 H         3.690825         1.753232         3.752331
 H         4.963007         1.428121         2.350625
 H         3.848069         2.793437         2.349379
 H         2.675009        -1.045107        -0.541162
 H         3.020225         1.887439        -0.521341
 H         1.115012         1.934665         1.915171
 H         0.147285         0.936538        -0.586791
 H         0.036379        -0.815681        -1.046430
 H        -1.122582         0.004343         0.171071
 H         1.325830        -1.447071         2.280886
