19
Iteration:  2887charge 0 multiplicity 1
 C         3.741421         1.460249         2.849028
 C         3.087947         0.948105         1.652836
 O         3.465060        -0.435380         1.311869
 C         2.520258        -0.355223         0.121372
 C         2.733899         1.291559         0.236222
 C         1.627005         1.135928         1.307819
 C         1.112432        -0.231815         0.746266
 C        -0.137006        -0.212351        -0.152846
 O         0.855955        -1.125125         1.776785
 H         3.651062         0.719630         3.647716
 H         4.764734         1.948979         2.747203
 H         3.158047         2.399077         3.120399
 H         2.991882        -1.080003        -0.540436
 H         3.091773         1.957600        -0.495141
 H         1.132409         1.787830         1.938664
 H         0.060670         0.516789        -1.079039
 H        -0.375787        -1.255268        -0.391951
 H        -1.020163         0.200228         0.150615
 H         1.598341        -0.925389         2.433197
