19
Iteration:  1184charge 0 multiplicity 1
 C         3.997352         1.826568         2.497103
 C         3.154996         0.887395         1.709653
 O         3.381871        -0.484075         1.449634
 C         2.525803        -0.399014         0.286241
 C         2.607413         1.169358         0.357098
 C         1.608696         1.026482         1.562422
 C         1.136680        -0.279587         0.859959
 C         0.100438         0.002241        -0.344859
 O         0.553607        -1.292902         1.627028
 H         4.328932         1.417803         3.468833
 H         4.976975         2.220118         2.033081
 H         3.387191         2.704921         2.558910
 H         2.777187        -1.072196        -0.593172
 H         2.802585         2.024307        -0.331248
 H         1.105481         1.872177         2.156912
 H        -0.700472         0.427608         0.227032
 H         0.521194         0.591862        -1.252904
 H        -0.576385        -0.914894        -0.597003
 H         1.242364        -1.913494         2.062095
