19
Iteration:  4429
 C         3.669099         1.579881         2.857608
 C         3.143692         0.917308         1.632883
 O         3.449614        -0.485925         1.315599
 C         2.694195        -0.247726         0.134138
 C         2.705074         1.305606         0.275357
 C         1.546798         1.210132         1.205603
 C         1.109389        -0.284227         0.827082
 C        -0.004099        -0.341051        -0.210273
 O         0.736678        -1.150735         1.842085
 H         3.902943         0.799975         3.461775
 H         4.571582         2.090510         2.534324
 H         2.902465         2.204938         3.315640
 H         2.865205        -0.865697        -0.755784
 H         3.118676         2.172537        -0.306935
 H         1.070947         2.100726         1.548116
 H         0.298732         0.272689        -0.990944
 H        -0.072595        -1.392564        -0.609470
 H        -1.023340         0.119135         0.164622
 H         1.433524        -1.256923         2.530495
