19
Iteration:  2469
 C         3.837309         1.683595         2.697690
 C         3.111633         0.939224         1.694121
 O         3.485069        -0.467359         1.379676
 C         2.601191        -0.286497         0.211024
 C         2.569602         1.245302         0.308530
 C         1.584915         1.077772         1.411103
 C         1.137639        -0.280010         0.800947
 C         0.058522        -0.092283        -0.248258
 O         0.631798        -1.296454         1.697599
 H         3.768082         1.125261         3.644355
 H         4.861125         1.683315         2.393517
 H         3.598631         2.699303         2.856685
 H         3.033094        -0.915614        -0.621154
 H         2.773217         2.006927        -0.503364
 H         1.047751         1.949206         1.823310
 H         0.305234         0.772206        -0.746413
 H        -0.053118        -0.948356        -0.927059
 H        -0.965193        -0.063682         0.280839
 H         1.364426        -1.798703         2.147213
