19
Iteration:  1394
 C         4.002893         1.779516         2.456532
 C         3.098246         0.904134         1.751046
 O         3.490206        -0.535723         1.450767
 C         2.561414        -0.382321         0.292064
 C         2.673176         1.193122         0.366863
 C         1.565310         1.052081         1.454660
 C         1.043978        -0.270732         0.822970
 C         0.054730         0.078048        -0.235882
 O         0.502556        -1.339179         1.667114
 H         4.217542         1.491279         3.502563
 H         4.909250         1.868745         1.895094
 H         3.563543         2.833348         2.387349
 H         2.752998        -1.110319        -0.463186
 H         2.969091         2.012946        -0.369135
 H         1.017264         1.860908         1.909845
 H        -0.891410        -0.075084         0.129914
 H         0.523619         0.955981        -0.771072
 H         0.015862        -0.774196        -0.993709
 H         1.446525        -1.585756         2.081335
