19
Iteration:  2048
 C         4.175400         1.769748         2.530327
 C         3.043350         0.935527         1.819186
 O         3.384883        -0.365779         1.452756
 C         2.533568        -0.323584         0.266127
 C         2.556196         1.251800         0.359294
 C         1.504940         1.049361         1.438659
 C         1.133907        -0.326746         0.873832
 C         0.120311        -0.020211        -0.339081
 O         0.565137        -1.474132         1.591014
 H         4.426578         1.354739         3.553399
 H         5.139886         1.693419         2.064181
 H         3.946588         2.785037         2.613588
 H         2.980812        -0.964867        -0.605981
 H         2.629037         2.151704        -0.346072
 H         0.716613         1.593994         2.088486
 H         0.384115         0.781691        -0.903726
 H        -0.192915        -0.932203        -0.892521
 H        -0.783705         0.413299         0.173046
 H         1.146337        -1.740435         2.263261
