19
Iteration:   127charge 0 multiplicity 1
 C         3.975648         1.724713         2.675246
 C         3.091927         0.826187         1.655857
 O         3.382450        -0.585170         1.374034
 C         2.505758        -0.405735         0.205123
 C         2.712498         1.175927         0.292068
 C         1.629789         1.152222         1.233280
 C         1.093606        -0.189701         0.815575
 C        -0.047064        -0.126200        -0.206314
 O         0.706053        -1.092469         1.843057
 H         3.857297         1.359264         3.740088
 H         4.991332         1.756774         2.370301
 H         3.466567         2.760793         2.698770
 H         2.729905        -1.154593        -0.650391
 H         3.158691         1.904640        -0.336826
 H         0.863182         1.824305         1.751216
 H         0.414349        -0.044306        -1.190518
 H        -0.644145        -1.082841        -0.173931
 H        -0.833381         0.751568         0.003640
 H         1.448603        -1.388245         2.350959
