19
Iteration:  3674
 C         3.820938         1.755400         2.606960
 C         3.038377         0.935514         1.708589
 O         3.376155        -0.481729         1.481244
 C         2.611435        -0.311319         0.200667
 C         2.639892         1.173289         0.233267
 C         1.591274         1.102229         1.375683
 C         1.115070        -0.284624         0.825783
 C         0.106370         0.010262        -0.141751
 O         0.705003        -1.415775         1.650240
 H         4.010940         1.348592         3.691886
 H         4.826301         1.984551         2.206065
 H         3.414237         2.800980         2.737613
 H         2.840802        -1.027479        -0.602981
 H         3.038034         2.062310        -0.361125
 H         0.938115         1.816189         1.791380
 H         0.289657         0.902786        -0.869171
 H         0.113781        -0.776758        -0.986267
 H        -0.813557        -0.105436         0.319556
 H         1.373098        -1.489666         2.346459
