19
Iteration:  2300charge 0 multiplicity 1
 C         4.005674         1.822486         2.496076
 C         3.007049         0.877277         1.811693
 O         3.364869        -0.504665         1.531811
 C         2.615799        -0.358255         0.297033
 C         2.634353         1.109632         0.363086
 C         1.573915         1.054533         1.430239
 C         1.118980        -0.250145         0.800266
 C         0.016070         0.022247        -0.232977
 O         0.659660        -1.355522         1.529647
 H         4.666045         1.298378         3.166367
 H         4.752018         2.297765         1.786220
 H         3.532783         2.725127         2.798278
 H         2.978077        -0.972825        -0.535399
 H         2.856107         2.030962        -0.266411
 H         1.100864         1.849395         1.886667
 H         0.167872         0.942660        -0.974799
 H         0.008529        -0.898153        -0.850273
 H        -0.944129         0.274915         0.195182
 H         1.234402        -1.397438         2.317630
