19
Iteration:  2811
 C         3.906120         1.632770         2.781338
 C         3.094247         0.855201         1.703097
 O         3.346538        -0.540630         1.345434
 C         2.524512        -0.234968         0.131446
 C         2.628197         1.218778         0.294166
 C         1.507735         1.206287         1.306826
 C         1.041574        -0.230667         0.847627
 C        -0.006686        -0.227177        -0.261753
 O         0.870985        -1.206539         1.781215
 H         3.740680         1.355618         3.812560
 H         4.971908         1.363474         2.686173
 H         3.711670         2.716333         2.723290
 H         2.858261        -0.767447        -0.748234
 H         3.137402         1.893917        -0.312594
 H         1.139919         1.991427         1.903603
 H         0.304700         0.711448        -0.900013
 H        -0.011022        -1.057726        -0.977851
 H        -0.950601         0.071821        -0.015269
 H         1.676711        -1.236276         2.255369
