19
Iteration:  3894
 C         3.954004         1.746548         2.665245
 C         3.090463         0.934939         1.714009
 O         3.394785        -0.476829         1.364953
 C         2.542826        -0.291178         0.202759
 C         2.500527         1.271357         0.351769
 C         1.503097         1.094549         1.427071
 C         1.098873        -0.313530         0.863972
 C         0.202274        -0.098491        -0.385962
 O         0.698168        -1.389583         1.764769
 H         4.279927         1.474305         3.630805
 H         4.842935         1.989321         2.101562
 H         3.395783         2.640378         2.925024
 H         2.966972        -0.899233        -0.610689
 H         2.791320         2.188389        -0.263821
 H         0.907942         1.891575         1.969901
 H         0.517990         0.522408        -1.283308
 H        -0.001982        -1.101107        -0.803323
 H        -0.817094         0.418235        -0.216829
 H         1.333262        -1.666136         2.498561
