19
Iteration:  1416charge 0 multiplicity 1
 C         4.028608         1.773003         2.577061
 C         3.187089         0.932566         1.644615
 O         3.411829        -0.435003         1.411897
 C         2.516767        -0.438212         0.235141
 C         2.527324         1.111319         0.284881
 C         1.645785         1.066444         1.555974
 C         1.127136        -0.303758         0.894925
 C         0.102284         0.028267        -0.260323
 O         0.520058        -1.288195         1.635544
 H         3.767646         1.433538         3.593553
 H         5.063134         1.592113         2.404637
 H         3.883312         2.892172         2.423630
 H         2.860820        -1.139690        -0.471962
 H         2.557789         1.860886        -0.561244
 H         1.126475         1.924306         1.999455
 H        -0.776992        -0.365624         0.053694
 H         0.249233         1.090417        -0.570758
 H         0.260535        -0.594233        -1.188688
 H         0.887013        -1.428910         2.458549
