19
Iteration:  2834charge 0 multiplicity 1
 C         3.746690         1.452127         2.797086
 C         3.065939         0.915737         1.642294
 O         3.379138        -0.466979         1.311325
 C         2.512420        -0.276310         0.168749
 C         2.721879         1.290627         0.225070
 C         1.602269         1.118159         1.336779
 C         1.109755        -0.116976         0.751309
 C        -0.055419        -0.273869        -0.246537
 O         0.912169        -1.073976         1.879266
 H         3.624501         0.815039         3.676599
 H         4.817019         1.316515         2.742663
 H         3.431924         2.449074         3.194047
 H         2.683622        -1.206506        -0.396752
 H         2.914265         2.193302        -0.271961
 H         1.061405         1.871925         1.707363
 H        -0.057361         0.408985        -1.218889
 H        -0.042585        -1.261585        -0.750544
 H        -0.955609         0.003019         0.191402
 H         1.837890        -1.501035         2.063354
