19
Iteration:  1454
 C         3.941576         1.585225         2.679509
 C         3.049868         0.911892         1.709960
 O         3.433055        -0.435761         1.333629
 C         2.546513        -0.365664         0.169250
 C         2.656760         1.165549         0.300573
 C         1.612908         1.176819         1.368100
 C         1.096028        -0.240988         0.827888
 C         0.017872        -0.111364        -0.264512
 O         0.642743        -1.195362         1.833161
 H         3.582621         1.594691         3.701805
 H         4.991607         1.145403         2.628747
 H         4.026602         2.592259         2.396146
 H         2.740332        -1.137311        -0.655718
 H         3.031546         1.849534        -0.406775
 H         1.118973         2.059975         1.739470
 H        -1.002238        -0.632004         0.019002
 H        -0.327206         0.869222        -0.481411
 H         0.435498        -0.514797        -1.154919
 H         1.540596        -1.449637         2.146253
