19
Iteration:   739charge 0 multiplicity 1
 C         3.965349         1.876197         2.520471
 C         3.186019         0.874214         1.743931
 O         3.458928        -0.508632         1.417586
 C         2.532292        -0.416262         0.241975
 C         2.610029         1.158589         0.412913
 C         1.585390         1.012320         1.512715
 C         1.091925        -0.284605         0.847756
 C         0.063769         0.063032        -0.266859
 O         0.549282        -1.314469         1.624760
 H         4.012521         1.760140         3.582471
 H         5.029726         1.882490         2.065725
 H         3.684543         2.891383         2.334490
 H         2.883919        -1.222316        -0.527109
 H         2.588694         2.093734        -0.132866
 H         0.868784         1.734574         1.782932
 H        -0.865436         0.487782         0.036257
 H         0.568329         0.627812        -1.030142
 H        -0.149420        -0.952017        -0.855376
 H         1.240041        -1.809525         2.004602
