19
Iteration:  3563charge 0 multiplicity 1
 C         3.798455         1.514610         2.770117
 C         3.030803         0.943991         1.696076
 O         3.437873        -0.428935         1.373209
 C         2.603605        -0.331863         0.166257
 C         2.644140         1.354269         0.264342
 C         1.531096         1.183698         1.302733
 C         1.151966        -0.190518         0.786610
 C        -0.023056        -0.250616        -0.196728
 O         0.825955        -1.246647         1.740505
 H         3.121672         1.794732         3.630834
 H         4.714181         0.833528         2.858060
 H         4.171077         2.498442         2.522225
 H         2.675359        -1.028670        -0.629315
 H         2.938622         2.222396        -0.204135
 H         0.852875         1.882001         1.890173
 H         0.311519         0.209310        -1.198068
 H        -0.216257        -1.330272        -0.371018
 H        -0.932746         0.166805         0.160314
 H         1.716057        -1.381898         2.132258
