19
Iteration:  1499charge 0 multiplicity 1
 C         3.836285         1.521970         2.796425
 C         3.030523         0.864080         1.671016
 O         3.283436        -0.525441         1.397789
 C         2.493131        -0.269693         0.182102
 C         2.829841         1.197649         0.184672
 C         1.662148         1.239153         1.274063
 C         1.075952        -0.142378         0.818475
 C        -0.144734        -0.249049        -0.175887
 O         0.910287        -1.127746         1.750347
 H         3.620789         1.167989         3.804954
 H         4.963928         1.427811         2.638021
 H         3.636572         2.555178         2.817388
 H         2.822979        -1.050099        -0.609800
 H         3.391626         2.015616        -0.359706
 H         1.176480         2.105141         1.488477
 H        -1.059563        -0.478710         0.458714
 H        -0.447001         0.711563        -0.614919
 H         0.033192        -0.939086        -0.965373
 H         1.776386        -1.267636         2.046431
