19
Iteration:  1370charge 0 multiplicity 1
 C         4.019054         1.760691         2.494362
 C         3.066775         0.894118         1.771803
 O         3.316203        -0.588881         1.506855
 C         2.539117        -0.340400         0.281169
 C         2.688603         1.156360         0.309526
 C         1.603323         1.066455         1.485896
 C         1.140504        -0.185661         0.816743
 C        -0.017371        -0.007431        -0.281362
 O         0.690965        -1.279346         1.634220
 H         4.414548         1.390155         3.457696
 H         4.851853         2.108604         1.820113
 H         3.467907         2.659188         2.686386
 H         2.719303        -0.967914        -0.636158
 H         2.814549         2.012319        -0.313499
 H         0.978274         1.780505         1.780046
 H        -0.791360         0.388031         0.226038
 H         0.395994         0.563206        -1.143691
 H        -0.512497        -0.923858        -0.625781
 H         1.477316        -1.522537         2.048543
