19
Iteration:  2740
 C         3.979880         1.861721         2.528777
 C         3.124234         0.912446         1.753884
 O         3.433662        -0.444785         1.444057
 C         2.582239        -0.379818         0.297816
 C         2.530693         1.196026         0.301869
 C         1.671439         1.070128         1.524680
 C         1.120798        -0.289086         0.840458
 C         0.131478         0.081000        -0.246478
 O         0.522709        -1.533326         1.536175
 H         4.067667         1.643768         3.621474
 H         5.000739         1.849350         2.207177
 H         3.407995         2.794061         2.450282
 H         2.758063        -1.233114        -0.408984
 H         2.529166         1.996203        -0.411216
 H         1.139211         1.883015         1.999533
 H         0.492567         0.812977        -0.853826
 H        -0.154043        -0.796564        -0.846000
 H        -0.778768         0.576862         0.271854
 H         0.959007        -1.584978         2.358384
