19
Iteration:  3935
 C         3.876399         1.597725         2.870923
 C         3.066770         0.893943         1.687460
 O         3.483517        -0.403786         1.377280
 C         2.619888        -0.291890         0.180621
 C         2.604520         1.327855         0.208048
 C         1.563094         1.158428         1.326679
 C         1.117517        -0.209148         0.761705
 C        -0.079349        -0.337844        -0.270910
 O         0.776082        -1.205445         1.754145
 H         3.826473         0.672012         3.549769
 H         4.874469         2.025360         2.622187
 H         3.128251         2.325359         3.255964
 H         2.851220        -0.962610        -0.642556
 H         2.957683         2.145991        -0.430130
 H         0.879614         1.881367         1.880674
 H        -0.023428         0.447679        -1.187242
 H        -0.036858        -1.349492        -0.749198
 H        -0.990275        -0.096241         0.254411
 H         1.573037        -1.269321         2.252785
