19
Iteration:    81
 C         4.063605         1.720756         2.567141
 C         3.203522         0.934839         1.504488
 O         3.497644        -0.463894         1.424124
 C         2.480318        -0.483191         0.324439
 C         2.588114         1.138110         0.253196
 C         1.606961         1.097686         1.404231
 C         1.014298        -0.278335         0.938854
 C         0.131980        -0.010856        -0.240875
 O         0.449447        -1.231233         1.762283
 H         3.832430         1.477589         3.573819
 H         5.183509         1.667144         2.317690
 H         3.773748         2.757144         2.465522
 H         2.749450        -1.355814        -0.313734
 H         2.844639         1.840577        -0.559331
 H         1.091920         2.058257         1.788722
 H         0.299087         1.042917        -0.569325
 H         0.327275        -0.730299        -1.142731
 H        -0.930840        -0.116339         0.056680
 H         1.016865        -1.218583         2.472112
