19
Iteration:  4498
 C         3.901592         1.847536         2.576058
 C         2.981019         0.894695         1.775362
 O         3.323710        -0.487504         1.533413
 C         2.591731        -0.366879         0.275933
 C         2.738390         1.248896         0.295125
 C         1.574543         1.117689         1.417474
 C         1.145948        -0.214818         0.807054
 C        -0.002831        -0.166699        -0.293250
 O         0.733513        -1.363114         1.574687
 H         4.753269         1.189666         2.962512
 H         4.277566         2.578464         1.913197
 H         3.340620         2.367996         3.371917
 H         2.995131        -1.105142        -0.441457
 H         3.321278         2.011914        -0.154084
 H         0.906374         1.880853         1.924485
 H         0.102735         0.785697        -0.947258
 H         0.053606        -1.034850        -0.874338
 H        -0.899701        -0.001404         0.273306
 H         1.476629        -1.659106         2.085369
