19
Iteration:  4929
 C         3.940151         1.885634         2.567170
 C         3.046956         0.907679         1.763046
 O         3.225747        -0.543296         1.694511
 C         2.623443        -0.430216         0.282103
 C         2.776264         1.072845         0.340232
 C         1.632898         1.094212         1.300000
 C         1.156698        -0.232506         0.680336
 C         0.039106        -0.017463        -0.307594
 O         0.629670        -1.253586         1.645174
 H         3.855940         1.771352         3.582857
 H         4.969729         1.687831         2.303657
 H         3.710305         2.918472         2.219012
 H         3.011370        -1.085891        -0.498314
 H         3.037216         1.838156        -0.349802
 H         0.993880         1.918868         1.518823
 H         0.313334         0.556101        -1.126632
 H        -0.189144        -0.994382        -0.844283
 H        -0.988192         0.087869         0.143487
 H         1.418837        -1.581176         2.211173
