19
Iteration:  2308
 C         3.988992         1.786337         2.493541
 C         3.043782         0.943007         1.784016
 O         3.378085        -0.505341         1.527935
 C         2.562014        -0.415554         0.255571
 C         2.650190         1.195660         0.362464
 C         1.578788         1.044489         1.517101
 C         1.141985        -0.236965         0.815340
 C         0.030364         0.030877        -0.296977
 O         0.674907        -1.344389         1.543195
 H         4.584303         1.262057         3.336283
 H         4.632968         2.150197         1.654954
 H         3.475488         2.614837         3.004902
 H         2.743522        -1.342782        -0.338912
 H         2.831521         1.976432        -0.334430
 H         0.943389         1.914124         1.750289
 H         0.215855         0.838416        -0.952897
 H        -0.097950        -0.909207        -0.878374
 H        -1.012336         0.019397         0.199235
 H         1.294728        -1.373719         2.338316
