19
Iteration:  2553charge 0 multiplicity 1
 C         4.016270         1.711220         2.623778
 C         3.032914         0.953708         1.713153
 O         3.437328        -0.436311         1.499964
 C         2.593511        -0.316460         0.251055
 C         2.502555         1.217064         0.333129
 C         1.511991         1.091288         1.463060
 C         1.166300        -0.289441         0.811737
 C         0.039671        -0.082910        -0.247403
 O         0.685308        -1.340636         1.558079
 H         4.118152         1.144984         3.570933
 H         5.068797         1.708263         2.245859
 H         3.453272         2.709737         2.858896
 H         2.964761        -1.045480        -0.522017
 H         2.743549         1.937388        -0.498434
 H         0.955010         2.003652         1.888028
 H         0.274697         0.749120        -0.948431
 H        -0.232657        -0.975717        -0.879799
 H        -0.830083         0.350614         0.296428
 H         1.574199        -1.832832         1.767658
