19
Iteration:   251
 C         3.955271         1.709454         2.544390
 C         3.112060         0.900049         1.674364
 O         3.432458        -0.484647         1.418608
 C         2.484607        -0.347877         0.296583
 C         2.668962         1.214138         0.290512
 C         1.632207         1.055506         1.469539
 C         1.054935        -0.251587         0.827081
 C        -0.006379        -0.031721        -0.304698
 O         0.669376        -1.291983         1.736106
 H         3.800201         1.362994         3.578667
 H         4.972503         1.812010         2.186640
 H         3.682501         2.740956         2.443878
 H         2.779997        -0.999715        -0.481097
 H         2.968566         1.969684        -0.446856
 H         1.059802         1.782283         2.112866
 H        -0.881256        -0.738458        -0.234531
 H        -0.512832         0.919434        -0.075983
 H         0.537985        -0.137714        -1.281677
 H         1.554257        -1.531770         2.238937
