19
Iteration:  4998
 C         3.914126         1.793517         2.644051
 C         3.083599         0.952648         1.712659
 O         3.477354        -0.444875         1.432195
 C         2.660273        -0.410342         0.307543
 C         2.664539         1.181485         0.320631
 C         1.548713         1.027724         1.371324
 C         1.075436        -0.263840         0.832065
 C         0.172212        -0.158890        -0.427954
 O         0.421977        -1.177811         1.767734
 H         3.341049         2.575954         3.154990
 H         4.289204         1.165500         3.431589
 H         4.748970         2.153397         2.091053
 H         2.881112        -1.116047        -0.494892
 H         3.164582         1.876484        -0.377225
 H         1.015573         1.807575         1.946006
 H         0.408527         0.742894        -1.164257
 H         0.406785        -1.008769        -1.034839
 H        -0.798258        -0.469060        -0.155416
 H         1.129986        -1.494442         2.372408
