19
Iteration:  2600
 C         3.641510         1.540151         2.833355
 C         3.131932         0.833572         1.647029
 O         3.428737        -0.523843         1.290879
 C         2.553623        -0.268153         0.122086
 C         2.634935         1.223128         0.289747
 C         1.615257         1.119896         1.320814
 C         1.160219        -0.152298         0.782791
 C        -0.044922        -0.132526        -0.144779
 O         0.901377        -1.164424         1.760942
 H         3.131393         1.413651         3.814521
 H         4.670813         1.294406         3.019425
 H         3.535618         2.564730         2.500564
 H         2.954050        -0.683667        -0.850862
 H         2.909113         1.996994        -0.401293
 H         0.977668         1.831447         1.715414
 H         0.015160         0.493867        -0.988540
 H        -0.092204        -1.186224        -0.419833
 H        -1.019270         0.166044         0.434040
 H         1.747549        -1.110939         2.215861
