19
Iteration:   704
 C         4.071252         1.662116         2.574892
 C         3.047433         0.973677         1.690114
 O         3.364573        -0.432825         1.523215
 C         2.531450        -0.364284         0.290447
 C         2.609671         1.155762         0.294081
 C         1.556591         1.170904         1.374934
 C         1.087657        -0.206330         0.870119
 C         0.021996        -0.027002        -0.198016
 O         0.718072        -1.386761         1.555917
 H         4.138912         1.169268         3.526665
 H         5.043845         1.403379         2.052696
 H         3.851511         2.799908         2.598320
 H         2.846845        -1.211181        -0.276551
 H         2.834946         1.927903        -0.423426
 H         0.761848         1.958460         1.827544
 H        -1.012969        -0.044654         0.168318
 H         0.180073         0.870440        -0.755284
 H         0.118530        -0.990566        -0.970095
 H         1.212155        -1.414155         2.315104
