19
Iteration:  3699
 C         3.856001         1.642885         2.697930
 C         3.100810         0.941611         1.698833
 O         3.393526        -0.492655         1.433677
 C         2.540233        -0.346740         0.248218
 C         2.670567         1.217686         0.297101
 C         1.496929         1.157291         1.393116
 C         1.072309        -0.246412         0.721272
 C        -0.012062        -0.123752        -0.333644
 O         0.876405        -1.224321         1.759016
 H         4.122083         1.009040         3.552377
 H         4.773108         2.149520         2.357343
 H         3.277646         2.519919         3.173597
 H         2.807325        -1.200684        -0.403380
 H         2.826297         1.891450        -0.484377
 H         0.767798         1.874537         1.870667
 H         0.247096         0.462648        -1.104039
 H        -0.250758        -1.051696        -0.820443
 H        -0.920778         0.121178         0.216949
 H         1.751296        -1.478854         1.972340
