19
Iteration:  4540
 C         3.995551         1.761640         2.605332
 C         3.009801         0.998775         1.747136
 O         3.379288        -0.391136         1.492238
 C         2.596929        -0.325561         0.289488
 C         2.663301         1.231225         0.333435
 C         1.560497         1.105979         1.387544
 C         1.047043        -0.313423         0.797179
 C         0.074345        -0.166106        -0.362244
 O         0.654322        -1.404253         1.652209
 H         4.921699         1.244087         2.646867
 H         4.172970         2.754308         2.345537
 H         3.760191         1.873501         3.652777
 H         2.831675        -1.100472        -0.458985
 H         3.091680         2.008578        -0.230517
 H         0.883367         1.824015         1.952704
 H         0.554022         0.501390        -1.162726
 H        -0.041458        -1.120015        -0.847029
 H        -0.956342         0.268527        -0.149528
 H         1.281068        -1.307501         2.453529
