19
Iteration:   495
 C         4.028040         1.766394         2.553793
 C         3.126954         1.058438         1.611944
 O         3.483123        -0.505968         1.429053
 C         2.622250        -0.500483         0.275432
 C         2.489671         1.178670         0.267736
 C         1.567297         1.055311         1.577425
 C         1.085207        -0.304377         0.876567
 C         0.155183         0.020843        -0.282663
 O         0.492444        -1.283449         1.679404
 H         4.150460         1.260509         3.639195
 H         5.081524         1.647025         2.351775
 H         3.699425         2.839653         2.570632
 H         2.790216        -1.092233        -0.645443
 H         2.528075         1.895921        -0.561437
 H         0.847293         1.829336         1.813681
 H        -0.803491        -0.330336         0.058399
 H         0.100152         1.110441        -0.374853
 H         0.310105        -0.461403        -1.301946
 H         1.201482        -1.635998         2.242454
