19
Iteration:  1589
 C         3.998627         1.739208         2.562882
 C         3.093970         0.905420         1.719503
 O         3.427684        -0.499233         1.373428
 C         2.527601        -0.292341         0.245637
 C         2.656948         1.241654         0.297763
 C         1.608926         1.059689         1.594327
 C         1.018155        -0.217042         0.864622
 C         0.099457        -0.095705        -0.328702
 O         0.599762        -1.314289         1.653658
 H         4.084953         1.341986         3.594420
 H         4.971508         1.607935         2.184851
 H         3.507748         2.775889         2.657863
 H         2.760259        -0.932425        -0.568174
 H         2.665957         2.124757        -0.261476
 H         1.025162         1.753387         2.377760
 H        -0.282796         0.831178        -0.378283
 H         0.486340        -0.310201        -1.407447
 H        -0.679821        -0.849348         0.007542
 H         1.387496        -1.685108         1.973824
