19
Iteration:  4001
 C         3.666709         1.670726         2.861387
 C         3.040626         0.946839         1.723848
 O         3.417853        -0.482825         1.298158
 C         2.619824        -0.272001         0.084874
 C         2.729795         1.219983         0.286936
 C         1.604857         1.100089         1.328854
 C         1.130229        -0.247174         0.766826
 C        -0.116663        -0.148175        -0.202152
 O         0.917529        -1.294870         1.763681
 H         2.963244         1.406989         3.748713
 H         4.748056         1.573578         3.124349
 H         3.718827         2.745116         2.589849
 H         2.849058        -1.025998        -0.660069
 H         2.944876         2.077868        -0.427985
 H         0.890969         1.844758         1.624188
 H         0.082143         0.713640        -0.931262
 H        -0.132041        -1.092610        -0.764938
 H        -0.904997        -0.023745         0.465916
 H         1.790825        -1.289028         2.117114
