19
Iteration:  3919
 C         3.803487         1.604748         2.703230
 C         3.071098         0.995558         1.664274
 O         3.460669        -0.422853         1.328927
 C         2.573081        -0.285891         0.206119
 C         2.629137         1.255589         0.367309
 C         1.529879         1.061963         1.478768
 C         1.125361        -0.232755         0.788409
 C         0.083445        -0.270305        -0.318812
 O         0.731201        -1.180478         1.721447
 H         4.171958         1.001775         3.474002
 H         4.750427         1.939257         2.243186
 H         3.319966         2.397191         3.255764
 H         2.842477        -0.940989        -0.654124
 H         2.868895         2.062527        -0.338423
 H         0.942116         1.790200         1.946049
 H         0.179591         0.267815        -1.148440
 H         0.001852        -1.319575        -0.555384
 H        -0.954362        -0.002123         0.055283
 H         1.436463        -1.348552         2.328535
