19
Iteration:  4418
 C         3.745710         1.562929         2.882303
 C         3.081135         0.916468         1.671146
 O         3.397174        -0.499725         1.306022
 C         2.645369        -0.287747         0.099644
 C         2.764558         1.400418         0.297210
 C         1.555924         1.184863         1.220128
 C         1.108852        -0.157793         0.722457
 C        -0.002328        -0.406886        -0.254918
 O         0.760685        -1.184414         1.882311
 H         3.866917         1.020749         3.725760
 H         4.705192         2.067207         2.730657
 H         3.153526         2.433184         3.190414
 H         2.936626        -0.920787        -0.759505
 H         3.180888         2.179843        -0.397141
 H         0.913764         1.805245         1.793370
 H         0.145058         0.009419        -1.190433
 H        -0.201679        -1.524979        -0.360894
 H        -1.030357        -0.038725         0.216722
 H         1.431587        -0.894080         2.462447
