19
Iteration:  3401charge 0 multiplicity 1
 C         4.013218         1.783618         2.569691
 C         3.082107         0.924230         1.684159
 O         3.518242        -0.412097         1.414842
 C         2.538365        -0.397037         0.352044
 C         2.529348         1.231645         0.409591
 C         1.418799         1.063203         1.519622
 C         1.061319        -0.286243         0.899572
 C         0.145194        -0.014761        -0.404031
 O         0.677162        -1.398423         1.598607
 H         3.849339         1.513313         3.632354
 H         4.976818         1.813753         2.070850
 H         3.682123         2.801649         2.647705
 H         2.752499        -1.000436        -0.505335
 H         2.734651         1.929929        -0.427953
 H         0.806303         1.667836         2.176343
 H         0.684740         0.615943        -1.267699
 H        -0.245186        -1.027390        -0.725247
 H        -0.748362         0.512527        -0.229124
 H         1.333750        -1.785027         2.136297
