19
Iteration:    48
 C         4.110122         1.720967         2.416065
 C         3.159064         0.897802         1.639593
 O         3.349274        -0.515021         1.610451
 C         2.537272        -0.425963         0.320385
 C         2.660751         1.161312         0.253545
 C         1.599485         1.123070         1.420780
 C         1.006810        -0.226612         0.838262
 C         0.016250        -0.043950        -0.252473
 O         0.556658        -1.197274         1.726776
 H         4.226375         1.508112         3.448861
 H         5.141329         1.478167         1.927240
 H         3.873753         2.745866         2.255905
 H         2.886448        -1.207723        -0.348796
 H         2.956387         1.896737        -0.526145
 H         1.087672         1.949266         1.924429
 H        -0.376629         1.026120        -0.324529
 H         0.459142        -0.326177        -1.306147
 H        -0.793323        -0.742053        -0.087663
 H         1.368883        -1.677250         2.106383
