19
Iteration:   789
 C         3.938061         1.620004         2.757553
 C         3.116925         0.931507         1.693013
 O         3.412752        -0.471330         1.357437
 C         2.540787        -0.340296         0.230986
 C         2.596821         1.211618         0.208853
 C         1.641827         1.076643         1.334999
 C         1.091306        -0.262003         0.792428
 C         0.072781        -0.076822        -0.249459
 O         0.659711        -1.247363         1.744344
 H         3.696184         1.246316         3.755065
 H         4.965139         1.807530         2.531540
 H         3.560966         2.704865         2.770053
 H         2.829086        -1.064963        -0.446173
 H         2.607460         1.999935        -0.506881
 H         1.032386         1.857539         1.946868
 H        -0.777934         0.457392         0.266415
 H         0.464540         0.362851        -1.164402
 H        -0.465154        -0.997312        -0.419501
 H         1.361248        -1.073718         2.498393
