19
Iteration:   147
 C         3.909675         1.555266         2.649029
 C         3.048881         0.929787         1.603457
 O         3.270514        -0.533567         1.513148
 C         2.575106        -0.323154         0.210722
 C         2.816909         1.155796         0.225121
 C         1.649279         1.214143         1.318533
 C         1.016925        -0.186242         0.753995
 C        -0.147221        -0.169870        -0.217760
 O         0.872431        -1.126767         1.827087
 H         3.794531         1.079480         3.605125
 H         4.959253         1.435165         2.359463
 H         3.442816         2.530743         2.789838
 H         2.728070        -1.084547        -0.636680
 H         3.152290         1.847456        -0.512548
 H         1.263810         2.306946         1.568127
 H         0.208528        -0.366708        -1.216214
 H        -0.890400        -0.940925         0.120596
 H        -0.762558         0.670733        -0.127985
 H         1.795435        -1.283870         2.180995
