19
Iteration:  3225
 C         3.965696         1.753978         2.562821
 C         3.071759         0.919216         1.749563
 O         3.460993        -0.463332         1.423782
 C         2.535190        -0.398260         0.274968
 C         2.584895         1.200886         0.423238
 C         1.496147         1.084570         1.450759
 C         1.068182        -0.222365         0.830111
 C         0.070925        -0.036391        -0.314439
 O         0.726734        -1.379958         1.591555
 H         4.127363         1.368807         3.525195
 H         4.984561         1.913951         2.207091
 H         3.462309         2.741831         2.517614
 H         2.687098        -1.183743        -0.497733
 H         2.813950         2.031069        -0.152991
 H         0.970008         1.966984         1.875684
 H         0.640120         0.551990        -1.128200
 H        -0.219141        -0.864810        -0.957182
 H        -0.776777         0.482758         0.206756
 H         1.206107        -1.410582         2.521033
