19
Iteration:  2963
 C         4.069902         1.756245         2.541802
 C         3.087477         0.945724         1.741124
 O         3.391104        -0.414498         1.478342
 C         2.605504        -0.336781         0.304239
 C         2.515531         1.275668         0.348331
 C         1.568955         1.029050         1.539555
 C         1.163057        -0.306195         0.829918
 C         0.097180        -0.064612        -0.216780
 O         0.564873        -1.400747         1.486065
 H         3.869204         1.756221         3.606560
 H         5.143828         1.460253         2.300924
 H         4.042002         2.817426         2.076003
 H         2.872361        -1.035061        -0.526554
 H         2.531339         2.026755        -0.495727
 H         0.829615         1.662409         1.898086
 H         0.141270         1.031389        -0.708558
 H        -0.000842        -0.830023        -1.000306
 H        -0.853496        -0.132707         0.229501
 H         1.247643        -1.573371         2.221092
