19
Iteration:  2081
 C         3.973059         1.841157         2.499680
 C         3.111350         0.890942         1.720969
 O         3.517154        -0.432238         1.402977
 C         2.539062        -0.358530         0.297553
 C         2.574317         1.144075         0.374638
 C         1.618564         1.020964         1.683716
 C         1.126304        -0.210387         0.939181
 C         0.113238        -0.029897        -0.388045
 O         0.528781        -1.369895         1.526772
 H         4.129925         1.305181         3.477478
 H         4.868138         2.048018         1.949801
 H         3.407631         2.653052         2.799308
 H         2.695612        -0.993848        -0.669261
 H         2.544844         1.975109        -0.318340
 H         0.927587         1.819043         2.233308
 H         0.413081         0.459369        -1.250477
 H        -0.285820        -1.006346        -0.762966
 H        -0.825823         0.429452         0.017394
 H         1.136008        -1.704612         2.204178
