19
Iteration:  3399
 C         3.993450         1.764847         2.573447
 C         3.069602         0.913840         1.703280
 O         3.522728        -0.406975         1.408851
 C         2.537296        -0.403743         0.348754
 C         2.516224         1.230318         0.394811
 C         1.432930         1.081173         1.510873
 C         1.083174        -0.266404         0.901152
 C         0.157238        -0.023015        -0.391752
 O         0.669121        -1.403826         1.592273
 H         3.807631         1.539577         3.648706
 H         4.985547         1.777700         2.043288
 H         3.676845         2.843558         2.616623
 H         2.764553        -1.035245        -0.511803
 H         2.757942         2.019405        -0.470431
 H         0.863536         1.675860         2.159341
 H         0.651918         0.534821        -1.201113
 H        -0.240027        -0.971658        -0.747410
 H        -0.797779         0.526549        -0.139468
 H         1.394307        -1.772983         2.187934
