19
Iteration:  4164charge 0 multiplicity 1
 C         3.608462         1.507694         2.885049
 C         3.065901         0.951406         1.594328
 O         3.474347        -0.402513         1.400195
 C         2.587355        -0.367195         0.167541
 C         2.608007         1.235808         0.196606
 C         1.538213         1.150456         1.262721
 C         1.152157        -0.251133         0.743217
 C        -0.030391        -0.186027        -0.124471
 O         0.967739        -1.127528         1.763088
 H         3.569529         0.561164         3.542995
 H         4.641055         1.916685         2.845764
 H         3.012560         2.355991         3.240673
 H         2.927061        -1.008391        -0.637784
 H         2.988767         1.974208        -0.470479
 H         1.149186         2.023274         1.680231
 H         0.057171         0.596008        -0.980306
 H        -0.118164        -1.040504        -0.848746
 H        -0.991201        -0.134583         0.320002
 H         1.757108        -1.512278         2.079724
