19
Iteration:  3525
 C         3.686294         1.526045         2.926840
 C         3.084889         0.934846         1.606766
 O         3.443767        -0.490517         1.333336
 C         2.564433        -0.286635         0.112434
 C         2.746493         1.262696         0.244319
 C         1.603521         1.152583         1.253354
 C         1.093679        -0.207397         0.744449
 C        -0.154898        -0.260510        -0.190142
 O         0.952767        -1.136629         1.789043
 H         3.101173         1.257586         3.777764
 H         4.696332         1.319293         3.159818
 H         3.582076         2.617585         2.765275
 H         2.912479        -1.064700        -0.633160
 H         3.009721         2.232822        -0.319455
 H         1.052755         1.874815         1.794824
 H        -0.227023         0.504117        -0.946903
 H        -0.232996        -1.282317        -0.578880
 H        -1.125110        -0.035841         0.400414
 H         1.818191        -1.111063         2.323057
