19
Iteration:  3954charge 0 multiplicity 1
 C         3.735667         1.532867         2.945857
 C         3.038800         1.027650         1.655738
 O         3.350205        -0.418791         1.336383
 C         2.575348        -0.262234         0.127759
 C         2.791952         1.256575         0.234184
 C         1.550017         1.155756         1.225671
 C         1.137434        -0.257603         0.780715
 C        -0.100540        -0.284106        -0.168564
 O         0.899258        -1.228387         1.772210
 H         3.653857         0.608357         3.650403
 H         4.752654         1.774846         2.541906
 H         3.438548         2.574057         3.234753
 H         3.028671        -0.803861        -0.707737
 H         2.858636         1.983545        -0.493308
 H         1.063514         2.132371         1.454376
 H         0.027761         0.582345        -0.848283
 H         0.035912        -1.185421        -0.766158
 H        -0.912065        -0.261865         0.481900
 H         1.732151        -1.337451         2.182332
