19
Iteration:  3484charge 0 multiplicity 1
 C         3.809534         1.664133         2.851299
 C         3.092750         0.973911         1.683199
 O         3.306627        -0.462804         1.361448
 C         2.588749        -0.341747         0.165734
 C         2.712803         1.283186         0.177656
 C         1.593386         1.040695         1.311790
 C         1.079083        -0.279680         0.788884
 C        -0.003923        -0.141544        -0.244801
 O         0.844827        -1.235895         1.801930
 H         3.924667         0.884463         3.609193
 H         4.856634         1.993981         2.753062
 H         3.208465         2.530105         3.185964
 H         2.917929        -0.932495        -0.720653
 H         2.860864         2.141846        -0.634305
 H         0.963618         1.808189         1.682867
 H         0.092898         0.738069        -0.716780
 H        -0.010344        -0.922946        -0.954648
 H        -0.999116        -0.139144         0.419275
 H         1.707391        -1.575414         2.042098
