19
Iteration:   775
 C         3.840945         1.740477         2.597767
 C         3.144234         0.860698         1.615714
 O         3.447495        -0.479682         1.369228
 C         2.553853        -0.422418         0.183673
 C         2.655463         1.244655         0.348379
 C         1.617027         1.016842         1.482671
 C         1.129005        -0.246504         0.884872
 C         0.082168        -0.013748        -0.242414
 O         0.605767        -1.268501         1.720700
 H         3.720774         1.291387         3.632936
 H         4.902149         1.680743         2.447875
 H         3.391554         2.718279         2.550574
 H         2.799801        -1.027420        -0.760179
 H         2.749046         2.143661        -0.293361
 H         1.032789         1.863648         1.848162
 H        -0.754152         0.731788        -0.077622
 H         0.614565         0.405963        -1.180482
 H        -0.225273        -0.969381        -0.497625
 H         1.059234        -1.300701         2.530363
