19
Iteration:   132charge 0 multiplicity 1
 C         3.928833         1.683109         2.667849
 C         3.102149         0.843476         1.678852
 O         3.354922        -0.609383         1.400233
 C         2.513379        -0.381572         0.226155
 C         2.756758         1.205234         0.261550
 C         1.612260         1.203770         1.221041
 C         1.109671        -0.176623         0.817736
 C        -0.103592        -0.150944        -0.238010
 O         0.737474        -1.123387         1.864933
 H         3.845755         1.244377         3.673358
 H         4.999244         1.793827         2.278578
 H         3.633772         2.725807         2.701301
 H         2.793265        -1.041722        -0.520636
 H         3.170638         1.923785        -0.488504
 H         1.013409         1.827552         1.805024
 H         0.174184        -0.078068        -1.329151
 H        -0.679521        -1.042197        -0.116806
 H        -0.695620         0.770386        -0.052343
 H         1.644353        -1.383905         2.274298
