19
Iteration:  4682
 C         3.785221         1.625573         2.716113
 C         3.111196         0.947490         1.632356
 O         3.362256        -0.400720         1.477762
 C         2.577043        -0.454239         0.248165
 C         2.646196         1.209188         0.216937
 C         1.625874         1.072978         1.358508
 C         1.125108        -0.193368         0.836698
 C         0.194315        -0.209853        -0.346585
 O         0.646891        -1.135832         1.754020
 H         3.459782         2.664303         2.918238
 H         3.697385         1.011371         3.602458
 H         4.869466         1.719075         2.445242
 H         2.971464        -1.243706        -0.421091
 H         2.736481         2.091862        -0.480253
 H         0.887562         1.700749         1.797359
 H         0.384861         0.524683        -1.226264
 H         0.070287        -1.172333        -0.722106
 H        -0.787622         0.122009        -0.029059
 H         1.197510        -1.067808         2.548551
