19
Iteration:    72
 C         4.102070         1.764657         2.544699
 C         3.185378         0.972427         1.647870
 O         3.453946        -0.466002         1.380240
 C         2.472237        -0.484493         0.356951
 C         2.614390         1.042714         0.233145
 C         1.613240         1.146896         1.446057
 C         1.053527        -0.249635         0.892715
 C         0.135372        -0.005182        -0.258094
 O         0.449739        -1.252264         1.754475
 H         4.024860         1.449999         3.627405
 H         5.140251         1.512006         2.257357
 H         3.879999         2.882483         2.471218
 H         2.659075        -1.308178        -0.431282
 H         2.650719         1.724252        -0.615206
 H         0.976712         2.128201         1.448267
 H         0.050435         1.075471        -0.512579
 H         0.353586        -0.606244        -1.220360
 H        -0.927926        -0.413730         0.122930
 H         1.027722        -1.469126         2.429201
