19
Iteration:  3404
 C         4.028587         1.804158         2.564311
 C         3.103604         0.946971         1.672316
 O         3.508914        -0.421495         1.424823
 C         2.534235        -0.374139         0.353324
 C         2.540030         1.229540         0.422756
 C         1.413009         1.031905         1.530567
 C         1.039241        -0.308296         0.886019
 C         0.138406        -0.012012        -0.425302
 O         0.673555        -1.391963         1.605690
 H         3.981231         1.435955         3.594024
 H         5.016878         1.840134         2.144296
 H         3.650595         2.812841         2.648634
 H         2.754868        -0.989799        -0.530134
 H         2.704472         1.836501        -0.363675
 H         0.740420         1.686069         2.177264
 H         0.675150         0.610860        -1.241399
 H        -0.203326        -1.048451        -0.715630
 H        -0.766506         0.565387        -0.292437
 H         1.373828        -1.821296         2.134056
