19
Iteration:  1780
 C         3.898626         1.620550         2.691559
 C         3.093435         0.836041         1.718383
 O         3.366503        -0.516622         1.398299
 C         2.587551        -0.267510         0.214259
 C         2.696755         1.225125         0.308304
 C         1.539776         1.042257         1.409257
 C         1.090399        -0.166581         0.769091
 C        -0.042903        -0.137463        -0.227741
 O         0.769114        -1.173784         1.659844
 H         3.827250         1.362785         3.793907
 H         5.008336         1.600844         2.271552
 H         3.736870         2.702467         2.710899
 H         2.714307        -0.933406        -0.655139
 H         2.955951         2.026720        -0.305587
 H         1.163189         1.842131         2.049658
 H        -0.240938         0.806190        -0.892252
 H         0.006710        -0.841783        -1.047099
 H        -0.872319        -0.489757         0.363102
 H         1.579207        -1.126646         2.267797
