19
Iteration:  3899charge 0 multiplicity 1
 C         3.932356         1.729457         2.658538
 C         3.052615         0.877953         1.746853
 O         3.416725        -0.477126         1.366199
 C         2.526797        -0.256844         0.174358
 C         2.518799         1.296465         0.306090
 C         1.517008         1.084687         1.407279
 C         1.111811        -0.271160         0.865159
 C         0.172459        -0.151064        -0.376441
 O         0.696048        -1.350611         1.768142
 H         4.351870         1.356176         3.677282
 H         4.910933         2.133871         2.251712
 H         3.397873         2.637400         3.033929
 H         2.979733        -0.862671        -0.618172
 H         2.677434         2.181037        -0.262563
 H         1.013685         1.818555         1.961769
 H         0.769890         0.472073        -1.054573
 H        -0.004558        -1.162095        -0.730364
 H        -0.764481         0.290568        -0.145994
 H         1.287647        -1.607192         2.441068
