19
Iteration:  4882
 C         3.757829         1.548015         2.875510
 C         3.058063         0.972169         1.613448
 O         3.358707        -0.499562         1.512979
 C         2.607683        -0.413873         0.214747
 C         2.818096         1.119265         0.132485
 C         1.617800         1.216711         1.140030
 C         1.047187        -0.164517         0.826270
 C         0.069543        -0.251365        -0.328319
 O         0.703222        -1.021902         1.870388
 H         4.023052         0.728054         3.547790
 H         4.682651         2.114389         2.667087
 H         3.059572         2.193899         3.366411
 H         2.892506        -1.263445        -0.443122
 H         3.059980         1.796436        -0.726980
 H         1.072563         2.175806         1.292094
 H         0.503428         0.053109        -1.205496
 H        -0.371115        -1.231511        -0.466509
 H        -0.825312         0.292072        -0.120719
 H         1.609598        -1.089351         2.356843
