19
Iteration:  4448charge 0 multiplicity 1
 C         3.668354         1.582763         2.843029
 C         3.045344         0.967726         1.638421
 O         3.516748        -0.375190         1.387358
 C         2.571325        -0.423188         0.194099
 C         2.660838         1.201466         0.151167
 C         1.605000         1.082645         1.329057
 C         1.151835        -0.211805         0.768392
 C         0.047085        -0.165458        -0.251939
 O         0.760002        -1.150607         1.824116
 H         4.054211         0.706411         3.422850
 H         4.432845         2.397628         2.564076
 H         2.919580         2.072829         3.467506
 H         2.756070        -1.117098        -0.640497
 H         2.804766         1.829518        -0.716275
 H         0.944919         1.742272         1.822144
 H         0.138922         0.629430        -1.025850
 H         0.080206        -1.197247        -0.740560
 H        -0.838841         0.050829         0.352542
 H         1.702368        -1.368620         2.129936
