19
Iteration:  2636
 C         3.723239         1.363900         2.956186
 C         3.105143         0.952290         1.662939
 O         3.385814        -0.435696         1.289045
 C         2.536856        -0.247297         0.083751
 C         2.742888         1.311468         0.196863
 C         1.579067         1.213598         1.179158
 C         1.095205        -0.218740         0.744765
 C        -0.087969        -0.264543        -0.159136
 O         0.913592        -1.123658         1.913015
 H         3.077390         0.984472         3.729754
 H         4.824878         1.183050         2.986815
 H         3.717817         2.449095         3.053144
 H         2.931666        -0.748577        -0.756233
 H         3.287037         1.945965        -0.540416
 H         0.912773         2.081372         1.606092
 H        -0.141901         0.372341        -1.183474
 H        -0.173343        -1.250718        -0.637199
 H        -0.989845        -0.211613         0.422894
 H         1.848517        -1.438660         2.195689
