19
Iteration:  3262
 C         3.844191         1.572173         2.740411
 C         3.078398         0.904776         1.649473
 O         3.432418        -0.416739         1.315873
 C         2.599613        -0.299230         0.125351
 C         2.688620         1.327603         0.284650
 C         1.574052         1.111538         1.383119
 C         1.119618        -0.283641         0.846904
 C         0.091802        -0.229067        -0.246855
 O         0.636216        -1.185801         1.802462
 H         3.729890         0.885931         3.644185
 H         4.867970         1.889797         2.537813
 H         3.258010         2.401340         3.094387
 H         2.944109        -0.988464        -0.641514
 H         2.677680         2.259986        -0.373137
 H         1.061544         1.968153         1.803498
 H         0.412161         0.412072        -1.097811
 H        -0.186161        -1.281201        -0.452124
 H        -0.799582         0.238804         0.018619
 H         1.395474        -1.656452         2.259765
