19
Iteration:   497
 C         4.050535         1.760869         2.548707
 C         3.115327         1.057105         1.615754
 O         3.487857        -0.503672         1.448002
 C         2.622191        -0.505485         0.252650
 C         2.492877         1.185335         0.252527
 C         1.573929         1.048794         1.588963
 C         1.083923        -0.321765         0.867767
 C         0.155986         0.036984        -0.283634
 O         0.481245        -1.289825         1.686629
 H         4.036589         1.336194         3.547483
 H         5.156357         1.675380         2.330271
 H         3.656816         2.865803         2.594125
 H         2.796157        -1.097755        -0.623534
 H         2.549238         1.955018        -0.499234
 H         0.718355         1.892386         1.889124
 H        -0.815489        -0.260598         0.090649
 H         0.023946         1.069138        -0.459562
 H         0.390260        -0.459485        -1.341199
 H         1.255333        -1.693975         2.295717
