19
Iteration:  4069charge 0 multiplicity 1
 C         4.060281         1.757231         2.576494
 C         3.079256         1.035599         1.746366
 O         3.388414        -0.439560         1.441846
 C         2.554994        -0.235138         0.283439
 C         2.519501         1.327044         0.442986
 C         1.385894         1.021628         1.459081
 C         1.092648        -0.379317         0.836637
 C         0.225296        -0.082925        -0.367882
 O         0.683606        -1.497218         1.609853
 H         4.241406         1.426219         3.577474
 H         5.050248         1.875033         2.088786
 H         3.852150         2.808411         2.561311
 H         2.758192        -0.845514        -0.622271
 H         2.542158         2.081180        -0.288440
 H         0.795618         1.823103         1.881056
 H         0.606979         0.528160        -1.079756
 H        -0.051392        -0.965391        -0.985582
 H        -0.791620         0.193094        -0.069178
 H         1.238089        -1.539956         2.475503
