19
Iteration:  2178charge 0 multiplicity 1
 C         3.774819         1.400902         2.875407
 C         3.042778         0.918220         1.672013
 O         3.276354        -0.472154         1.342430
 C         2.541132        -0.237676         0.136402
 C         2.834830         1.324184         0.228234
 C         1.630243         1.245175         1.173560
 C         1.118323        -0.132350         0.816509
 C        -0.122151        -0.417007        -0.131245
 O         0.923918        -1.077462         1.751256
 H         3.157010         1.247951         3.873494
 H         4.799520         0.951712         2.898465
 H         3.871632         2.467578         2.761330
 H         2.700327        -1.054227        -0.646986
 H         3.178233         2.137570        -0.294649
 H         1.100994         2.087701         1.801463
 H        -0.143309         0.309665        -0.937632
 H         0.059264        -1.341051        -0.781102
 H        -1.189892        -0.241048         0.395206
 H         1.838808        -1.243748         2.260416
