19
Iteration:  2258
 C         3.917090         1.746193         2.651074
 C         3.099124         0.941635         1.710900
 O         3.413862        -0.457236         1.441570
 C         2.540074        -0.421300         0.259242
 C         2.633128         1.132900         0.265262
 C         1.623652         1.079366         1.457862
 C         1.072150        -0.205537         0.865086
 C         0.031440        -0.022704        -0.238911
 O         0.677141        -1.314541         1.592241
 H         3.863778         1.291784         3.591056
 H         4.966856         1.729575         2.328304
 H         3.568127         2.803585         2.714201
 H         2.991661        -1.058838        -0.468599
 H         2.616983         1.861679        -0.668698
 H         1.104860         1.840607         1.926154
 H         0.471396         0.704617        -1.055648
 H        -0.287763        -0.976442        -0.634828
 H        -0.848800         0.351711         0.147174
 H         1.507851        -1.476475         2.022445
