19
Iteration:  4128
 C         3.816717         1.748124         2.786658
 C         3.058534         0.949715         1.717928
 O         3.378964        -0.421532         1.435026
 C         2.591479        -0.305206         0.109422
 C         2.654307         1.227679         0.308576
 C         1.622415         1.130200         1.311637
 C         1.135589        -0.385548         0.803013
 C        -0.052973        -0.163746        -0.228066
 O         0.796193        -1.323544         1.653553
 H         4.255436         1.108189         3.551532
 H         4.570017         2.352834         2.385685
 H         3.028513         2.270942         3.327853
 H         2.829082        -0.952831        -0.739504
 H         2.988117         2.033182        -0.374445
 H         1.168212         2.015417         1.794654
 H         0.276361         0.842633        -0.648617
 H         0.110829        -1.038564        -0.836708
 H        -1.052603        -0.039036         0.237516
 H         1.524647        -1.356929         2.256838
