19
Iteration:  1548charge 0 multiplicity 1
 C         3.798754         1.568788         2.740835
 C         3.049705         0.909858         1.625306
 O         3.480882        -0.467901         1.346697
 C         2.556019        -0.387386         0.156992
 C         2.670773         1.220850         0.217433
 C         1.615829         1.031027         1.378730
 C         1.134572        -0.208040         0.783186
 C        -0.022053        -0.005568        -0.215174
 O         0.734371        -1.199799         1.828210
 H         3.826867         0.858774         3.632208
 H         4.817182         1.816139         2.425469
 H         3.369074         2.577471         3.171449
 H         2.831346        -0.987058        -0.666739
 H         2.727966         1.893814        -0.571574
 H         1.056365         1.724998         2.093989
 H        -0.735863         0.782010         0.016193
 H         0.455741         0.275670        -1.267163
 H        -0.449596        -1.080396        -0.346052
 H         1.430835        -0.999547         2.548812
