19
Iteration:  3069charge 0 multiplicity 1
 C         3.812907         1.451203         2.920715
 C         3.052788         0.946127         1.645427
 O         3.342312        -0.446392         1.360542
 C         2.596688        -0.255831         0.145416
 C         2.700566         1.222246         0.153493
 C         1.591616         1.188497         1.362186
 C         1.154561        -0.209430         0.712299
 C        -0.131065        -0.287681        -0.189490
 O         0.902770        -1.087804         1.759415
 H         3.881630         0.648056         3.627025
 H         4.852330         1.713313         2.668126
 H         3.197613         2.194541         3.394118
 H         2.708269        -0.913244        -0.754202
 H         3.157396         2.129526        -0.457638
 H         0.970014         1.992911         1.537222
 H        -0.036610         0.033815        -1.219493
 H        -0.342672        -1.363594        -0.159884
 H        -1.076649         0.333087         0.313371
 H         1.849437        -1.139175         2.212601
