19
Iteration:  2783
 C         3.935201         1.683697         2.572235
 C         3.067176         0.911910         1.701863
 O         3.421023        -0.423342         1.480231
 C         2.603423        -0.384085         0.252637
 C         2.596374         1.231438         0.311639
 C         1.586011         1.082528         1.500831
 C         1.174463        -0.249571         0.849917
 C         0.005920        -0.040988        -0.286671
 O         0.666857        -1.323890         1.594485
 H         3.847710         1.706606         3.691676
 H         4.922350         1.271561         2.376776
 H         3.846086         2.752306         2.273756
 H         3.029502        -0.985086        -0.601217
 H         2.590825         2.124726        -0.336096
 H         1.044428         1.842267         2.075985
 H        -0.024251         0.631688        -1.074846
 H        -0.211663        -0.984532        -0.840083
 H        -0.972953         0.201436         0.331014
 H         1.313932        -1.692609         2.166336
