19
Iteration:    26
 C         4.117835         1.731448         2.418241
 C         3.064726         0.879747         1.765389
 O         3.242516        -0.603737         1.541108
 C         2.509122        -0.407705         0.265828
 C         2.730597         1.097760         0.306030
 C         1.598392         1.189153         1.322350
 C         1.081188        -0.190601         0.848226
 C        -0.050243        -0.052578        -0.274405
 O         0.734558        -1.189173         1.770281
 H         4.190691         1.563245         3.470334
 H         5.191041         1.564265         1.978116
 H         3.766211         2.729645         2.318964
 H         2.673869        -1.151937        -0.483397
 H         3.117893         1.842925        -0.401729
 H         0.969856         2.007348         1.581767
 H        -0.704919         0.879861        -0.071777
 H         0.339291         0.042883        -1.400551
 H        -0.615192        -0.951325        -0.244188
 H         1.226454        -1.080012         2.547435
