19
Iteration:  3637charge 0 multiplicity 1
 C         3.936464         1.871253         2.609032
 C         3.093454         0.902774         1.718507
 O         3.601800        -0.440507         1.495578
 C         2.586721        -0.361459         0.259691
 C         2.565666         1.168156         0.294703
 C         1.571375         1.034118         1.544319
 C         1.074343        -0.248873         0.816867
 C        -0.011411        -0.039482        -0.290943
 O         0.598868        -1.385048         1.543233
 H         3.564602         1.911660         3.571012
 H         4.930588         1.406185         2.529571
 H         3.927368         2.862823         2.211372
 H         3.016992        -1.091453        -0.424572
 H         2.740274         1.880397        -0.438965
 H         0.914193         1.859408         2.030917
 H        -0.094910         0.913006        -0.815663
 H         0.158312        -0.973458        -0.805665
 H        -1.134304        -0.156646         0.183712
 H         1.383257        -1.591344         1.999007
