19
Iteration:  1740charge 0 multiplicity 1
 C         3.821738         1.339696         2.926231
 C         3.074506         0.942045         1.669800
 O         3.324299        -0.423759         1.296928
 C         2.474548        -0.230642         0.165384
 C         2.721527         1.293588         0.190448
 C         1.604524         1.215485         1.194038
 C         1.056925        -0.139087         0.807090
 C        -0.041722        -0.280805        -0.206315
 O         0.930625        -1.179281         1.845148
 H         3.684607         0.493396         3.558122
 H         4.792940         1.522975         2.530595
 H         3.591504         2.340958         3.362171
 H         2.776163        -0.826159        -0.646902
 H         3.061286         1.969427        -0.607750
 H         0.914944         2.098698         1.683343
 H         0.358412         0.301502        -1.081381
 H        -0.383164        -1.306519        -0.373533
 H        -0.901073         0.353332         0.135278
 H         1.895547        -1.240225         2.290353
