19
Iteration:  1503charge 0 multiplicity 1
 C         3.830073         1.523785         2.820987
 C         3.040346         0.911103         1.678340
 O         3.305884        -0.552142         1.381764
 C         2.502966        -0.270929         0.172624
 C         2.832533         1.203812         0.189179
 C         1.665213         1.240455         1.219520
 C         1.096896        -0.143570         0.842956
 C        -0.144420        -0.227354        -0.134296
 O         0.876316        -1.145731         1.746761
 H         3.578024         0.994382         3.805755
 H         4.886688         1.509042         2.563322
 H         3.711983         2.719983         2.909998
 H         2.691369        -1.042800        -0.529935
 H         3.357036         1.940332        -0.437564
 H         1.031433         2.184757         1.578088
 H        -1.008455        -0.512932         0.405134
 H        -0.410985         0.742227        -0.825129
 H        -0.061198        -1.046573        -0.988853
 H         1.840245        -1.431838         2.076561
