19
Iteration:  2732charge 0 multiplicity 1
 C         3.915680         1.806897         2.487172
 C         3.107880         0.912221         1.700628
 O         3.450320        -0.477337         1.480035
 C         2.554583        -0.372173         0.311337
 C         2.547301         1.210823         0.308883
 C         1.664326         1.009579         1.580288
 C         1.106411        -0.288358         0.849785
 C         0.145884         0.070651        -0.192887
 O         0.574172        -1.440146         1.511388
 H         3.923228         1.500671         3.544750
 H         4.924169         1.985299         2.016262
 H         3.479044         2.786322         2.545076
 H         2.908428        -0.969825        -0.532290
 H         2.634758         1.987023        -0.531753
 H         1.062837         1.946517         2.038516
 H         0.530005         0.702720        -1.017792
 H        -0.098910        -0.754551        -0.830384
 H        -0.854988         0.417986         0.095214
 H         1.007782        -1.398248         2.356753
