19
Iteration:  1862charge 0 multiplicity 1
 C         4.081350         1.812046         2.569993
 C         3.120037         0.898431         1.749687
 O         3.437322        -0.473082         1.448341
 C         2.552286        -0.321355         0.277747
 C         2.629163         1.233184         0.354989
 C         1.548318         1.083380         1.452854
 C         1.069521        -0.287323         0.841437
 C         0.042457         0.021694        -0.261174
 O         0.549605        -1.459068         1.577508
 H         4.233012         1.489777         3.596051
 H         5.015240         1.648089         2.156413
 H         3.757192         2.835249         2.406017
 H         2.897180        -0.914958        -0.624502
 H         2.848322         2.012220        -0.356461
 H         0.783523         1.631313         1.932758
 H         0.229539         0.938112        -0.611580
 H         0.176807        -0.720446        -0.986906
 H        -1.000924         0.085192         0.043086
 H         1.160017        -1.645258         2.294124
