19
Iteration:  4943charge 0 multiplicity 1
 C         3.922446         1.839130         2.507473
 C         3.086639         0.920767         1.763384
 O         3.394249        -0.511008         1.679668
 C         2.575360        -0.441855         0.368113
 C         2.744564         1.113833         0.294733
 C         1.564103         1.137207         1.323199
 C         1.064936        -0.287556         0.809408
 C         0.109935        -0.027909        -0.376922
 O         0.556843        -1.327384         1.590340
 H         3.597453         2.069442         3.557759
 H         4.938439         1.457294         2.511623
 H         3.942327         2.801651         1.973793
 H         2.916946        -1.206593        -0.319993
 H         3.136717         1.806771        -0.424589
 H         1.048655         2.106392         1.602773
 H         0.308506         1.078355        -0.812796
 H         0.029565        -0.872584        -1.031407
 H        -0.793658         0.259773         0.206406
 H         1.247675        -1.407821         2.238670
