19
Iteration:  2680charge 0 multiplicity 1
 C         3.920536         1.566027         2.761209
 C         3.081066         0.910004         1.670573
 O         3.355551        -0.485354         1.403922
 C         2.567054        -0.230173         0.131019
 C         2.704379         1.249924         0.302021
 C         1.527853         1.161234         1.325738
 C         1.085296        -0.184894         0.806678
 C         0.002907        -0.242664        -0.261448
 O         0.772617        -1.229766         1.787559
 H         3.768986         0.878497         3.575785
 H         4.968905         1.833047         2.481034
 H         3.557824         2.555927         3.063607
 H         2.696955        -0.906813        -0.670018
 H         2.983813         2.082733        -0.414765
 H         0.830922         1.943403         1.811321
 H         0.267217         0.629106        -1.060995
 H        -0.147502        -1.192926        -0.820149
 H        -0.969479         0.000458         0.113611
 H         1.735873        -1.399613         2.116368
