19
Iteration:  3665charge 0 multiplicity 1
 C         3.906830         1.852982         2.637551
 C         3.073897         0.925497         1.671770
 O         3.359067        -0.481104         1.443493
 C         2.590353        -0.345826         0.221116
 C         2.698578         1.238394         0.293796
 C         1.561084         1.103426         1.418123
 C         1.181539        -0.353778         0.820819
 C         0.075881        -0.005014        -0.192863
 O         0.646851        -1.446602         1.630822
 H         3.807680         1.415707         3.692736
 H         4.941135         1.856944         2.301177
 H         3.317744         2.824699         2.524629
 H         3.015491        -1.084550        -0.492785
 H         2.856999         1.943340        -0.574118
 H         0.829145         1.781636         1.781170
 H         0.121934         1.058437        -0.499969
 H         0.017528        -0.785635        -0.965402
 H        -0.853666         0.015753         0.273214
 H         1.207909        -1.447088         2.411985
