19
Iteration:  2487charge 0 multiplicity 1
 C         3.968057         1.753715         2.607628
 C         3.056806         0.916377         1.697198
 O         3.463204        -0.425741         1.388448
 C         2.508904        -0.364275         0.245753
 C         2.636324         1.232608         0.343897
 C         1.590090         0.982301         1.580988
 C         1.074855        -0.188548         0.853025
 C         0.147259        -0.094094        -0.335879
 O         0.604738        -1.326586         1.613978
 H         4.173830         1.295795         3.565967
 H         4.915170         2.176901         2.193526
 H         3.291640         2.686256         2.715926
 H         2.635150        -1.058598        -0.577600
 H         2.652875         2.054273        -0.297092
 H         0.969867         1.773114         2.151274
 H         0.229537         0.905334        -0.901406
 H         0.308109        -1.010082        -0.944377
 H        -0.860080        -0.178900        -0.021466
 H         1.222765        -1.732439         2.251697
