19
Iteration:  1691
 C         3.767012         1.560866         2.876226
 C         3.081144         0.820966         1.678419
 O         3.474488        -0.476932         1.217010
 C         2.549122        -0.226881         0.059261
 C         2.764848         1.262162         0.262657
 C         1.578750         1.121891         1.338240
 C         1.129210        -0.211042         0.790363
 C        -0.094882        -0.160940        -0.189509
 O         0.787472        -1.218602         1.843664
 H         3.405022         0.972579         3.751210
 H         4.840171         1.899148         2.730677
 H         3.327433         2.558621         2.952994
 H         2.523675        -0.858211        -0.885140
 H         3.175500         2.138563        -0.328881
 H         1.249173         1.887864         1.868755
 H         0.270931         0.025899        -1.203944
 H        -0.736573        -1.039391         0.002921
 H        -0.660605         0.718951         0.082644
 H         1.532141        -1.447099         2.349195
