19
Iteration:  2019
 C         3.921455         1.635836         2.614177
 C         3.081754         0.879542         1.675458
 O         3.382756        -0.465234         1.492226
 C         2.514798        -0.331810         0.202831
 C         2.558544         1.250038         0.321050
 C         1.555610         1.116971         1.433987
 C         1.094048        -0.208363         0.846470
 C         0.001701        -0.085126        -0.256957
 O         0.838050        -1.301218         1.604093
 H         3.801525         1.281938         3.633768
 H         5.026089         1.403302         2.429394
 H         3.886889         2.724214         2.535672
 H         2.837105        -0.979605        -0.612215
 H         2.811847         2.068720        -0.301086
 H         0.986496         1.824532         2.125960
 H         0.183358         0.910091        -0.793805
 H         0.029786        -0.960943        -0.931278
 H        -0.946049         0.054596         0.175908
 H         1.526633        -1.417455         2.237808
