19
Iteration:   146charge 0 multiplicity 1
 C         3.902170         1.563419         2.648376
 C         3.055487         0.929034         1.610263
 O         3.276441        -0.544532         1.506804
 C         2.575643        -0.323751         0.214858
 C         2.819001         1.162847         0.225837
 C         1.642686         1.215278         1.314783
 C         1.020285        -0.186309         0.755223
 C        -0.148391        -0.167446        -0.225258
 O         0.866265        -1.130496         1.836341
 H         3.828571         1.103078         3.588395
 H         4.982204         1.433646         2.350195
 H         3.449966         2.519134         2.775259
 H         2.723229        -1.067029        -0.618224
 H         3.150759         1.857216        -0.535028
 H         1.268083         2.300587         1.596219
 H         0.191084        -0.344060        -1.248117
 H        -0.889047        -0.934524         0.113918
 H        -0.730623         0.638149        -0.109021
 H         1.753186        -1.285197         2.159193
