19
Iteration:  2838
 C         3.723018         1.442146         2.824792
 C         3.062363         0.896624         1.618219
 O         3.370902        -0.433855         1.315301
 C         2.532859        -0.274009         0.144986
 C         2.715031         1.273149         0.197752
 C         1.603191         1.111048         1.325808
 C         1.129098        -0.129113         0.767040
 C        -0.021053        -0.298297        -0.209912
 O         0.898068        -1.044720         1.852733
 H         3.555637         0.617472         3.610072
 H         4.811617         1.337212         2.689728
 H         3.438781         2.410816         3.243618
 H         2.711971        -1.187776        -0.477476
 H         3.038974         2.261710        -0.289421
 H         1.049024         1.986329         1.855444
 H        -0.014090         0.400037        -0.992921
 H        -0.086649        -1.325733        -0.650809
 H        -1.055907         0.077696         0.279736
 H         1.732020        -1.431215         2.099617
