19
Iteration:  3245charge 0 multiplicity 1
 C         3.880582         1.697811         2.715466
 C         3.127541         0.940270         1.678215
 O         3.397987        -0.483193         1.381890
 C         2.560471        -0.273690         0.209260
 C         2.579292         1.221966         0.272277
 C         1.616888         1.024072         1.472807
 C         1.124964        -0.224176         0.789152
 C         0.084997        -0.102507        -0.344153
 O         0.670668        -1.320406         1.761877
 H         4.111665         1.129525         3.579700
 H         4.905340         1.856919         2.287147
 H         3.450063         2.719792         2.935249
 H         2.783560        -0.831053        -0.720507
 H         2.719689         1.952598        -0.435767
 H         0.904726         1.674275         2.066158
 H         0.486535         0.396700        -1.218383
 H        -0.112484        -1.131779        -0.612584
 H        -0.949007         0.470116        -0.045872
 H         1.317539        -1.055713         2.436044
