19
Iteration:  4299charge 0 multiplicity 1
 C         3.833272         2.005443         2.652467
 C         3.139566         0.966145         1.776900
 O         3.482858        -0.521286         1.412184
 C         2.678255        -0.343852         0.233780
 C         2.604040         1.216361         0.356247
 C         1.610254         1.022250         1.414582
 C         1.105883        -0.300154         0.860109
 C         0.022586        -0.023921        -0.285209
 O         0.566850        -1.486001         1.599076
 H         3.277308         2.473474         3.456684
 H         4.760510         1.551629         3.124761
 H         4.231336         2.756836         1.909393
 H         3.048999        -0.909694        -0.641324
 H         2.796716         1.860831        -0.463752
 H         0.956523         1.746196         1.892679
 H         0.121925         0.876136        -0.631700
 H         0.017388        -0.832970        -1.000138
 H        -0.909886        -0.293580         0.324363
 H         1.389725        -1.894891         1.831411
