19
Iteration:  4010
 C         3.724755         1.746908         2.917233
 C         3.082842         0.943990         1.681634
 O         3.433481        -0.453063         1.275751
 C         2.583044        -0.307865         0.095169
 C         2.681259         1.320995         0.275561
 C         1.605547         1.045870         1.333786
 C         1.146686        -0.321554         0.766087
 C        -0.045551        -0.162306        -0.189901
 O         0.808115        -1.312927         1.745507
 H         3.120272         1.803659         3.941298
 H         4.734633         1.279998         2.940304
 H         3.577403         2.774222         2.495408
 H         2.884437        -1.047462        -0.653246
 H         3.278262         2.100642        -0.249580
 H         1.018702         1.796533         1.936251
 H         0.046636         0.698918        -0.981341
 H        -0.165828        -1.142738        -0.704974
 H        -0.914949         0.091174         0.324983
 H         1.630286        -1.559539         2.135426
