19
Iteration:  2281
 C         4.005048         1.820481         2.506372
 C         3.106899         0.947141         1.747673
 O         3.392633        -0.560938         1.561715
 C         2.619140        -0.348025         0.226909
 C         2.687322         1.262725         0.403629
 C         1.520905         1.077958         1.412133
 C         1.122407        -0.344706         0.788049
 C        -0.004281         0.009224        -0.236340
 O         0.582679        -1.387536         1.584457
 H         4.394039         1.383265         3.368253
 H         4.807150         2.155923         1.863863
 H         3.403883         2.752961         2.753749
 H         3.017459        -1.082897        -0.464628
 H         3.156375         1.932943        -0.402654
 H         0.817114         1.823870         1.731250
 H         0.357415         0.893975        -0.884403
 H        -0.464946        -0.757408        -0.834872
 H        -0.799990         0.355998         0.339233
 H         1.425296        -1.658387         2.103036
