19
Iteration:  4897
 C         3.775584         1.670065         2.692731
 C         3.064319         0.876473         1.730585
 O         3.313228        -0.519834         1.613313
 C         2.537995        -0.420885         0.261224
 C         2.808776         1.099490         0.251969
 C         1.629685         1.251531         1.138055
 C         1.138076        -0.162626         0.740806
 C        -0.016873        -0.168554        -0.331303
 O         0.765442        -1.129774         1.779513
 H         3.966994         0.940230         3.426072
 H         4.743638         2.014220         2.354646
 H         3.245627         2.530146         3.165492
 H         2.834052        -1.114259        -0.518640
 H         3.327280         1.781989        -0.396254
 H         1.049114         2.098611         1.417828
 H         0.362686         0.155944        -1.326427
 H        -0.153405        -1.297860        -0.422582
 H        -0.936242         0.480368        -0.108382
 H         1.461871        -1.204954         2.407580
