19
Iteration:  1649charge 0 multiplicity 1
 C         3.941336         1.669214         2.590794
 C         3.061450         0.923453         1.711043
 O         3.349033        -0.442504         1.474002
 C         2.514810        -0.298082         0.185636
 C         2.590244         1.212253         0.322534
 C         1.591416         1.090841         1.511074
 C         1.096716        -0.254144         0.798170
 C         0.044890         0.012284        -0.225980
 O         0.773382        -1.410475         1.603153
 H         3.748811         1.413779         3.656143
 H         5.041834         1.380782         2.312731
 H         3.959216         2.732857         2.432992
 H         2.959458        -0.993326        -0.606472
 H         2.915105         2.088109        -0.298169
 H         0.875994         1.714616         1.954733
 H         0.200515         0.857741        -1.035914
 H        -0.330086        -0.923939        -0.520540
 H        -0.789201         0.406778         0.344011
 H         1.777915        -1.571001         1.894453
