19
Iteration:  3832
 C         3.913997         1.910023         2.727588
 C         3.102494         0.960909         1.727257
 O         3.388021        -0.459066         1.500366
 C         2.564177        -0.334532         0.169840
 C         2.775960         1.199528         0.293941
 C         1.561672         1.072236         1.329640
 C         1.101324        -0.373291         0.815016
 C        -0.093433        -0.058826        -0.168020
 O         0.712558        -1.440820         1.544370
 H         3.633035         1.789481         3.814470
 H         5.019110         1.573783         2.580066
 H         3.836543         2.927078         2.228794
 H         2.895592        -1.033182        -0.655542
 H         3.041240         2.169796        -0.308517
 H         0.947209         1.852437         1.788550
 H         0.139979         0.786329        -0.635376
 H        -0.298343        -0.857465        -0.835819
 H        -1.027838         0.050285         0.456237
 H         1.502826        -1.648629         2.191985
