19
Iteration:  4564charge 0 multiplicity 1
 C         3.846876         1.627726         2.686225
 C         3.031229         0.944646         1.634323
 O         3.448196        -0.405807         1.472030
 C         2.566284        -0.375640         0.269589
 C         2.521128         1.201623         0.201316
 C         1.545359         1.120488         1.371012
 C         1.148710        -0.219722         0.887451
 C         0.247692        -0.141785        -0.307338
 O         0.669089        -1.249978         1.725623
 H         4.969948         1.532620         2.688697
 H         3.635978         2.646625         2.861704
 H         3.610971         1.276830         3.655643
 H         2.732557        -1.054386        -0.580085
 H         2.557357         1.957870        -0.567244
 H         0.739075         1.788468         1.636486
 H         0.588951         0.577414        -1.178247
 H         0.015550        -1.098583        -0.747708
 H        -0.639994         0.324612         0.047064
 H         1.439134        -1.610079         2.200632
