19
Iteration:  3536charge 0 multiplicity 1
 C         3.714401         1.587775         2.927999
 C         3.153520         0.932405         1.720185
 O         3.374086        -0.454934         1.321518
 C         2.586575        -0.275781         0.033271
 C         2.721970         1.288412         0.254313
 C         1.617185         1.127934         1.277245
 C         1.140038        -0.237095         0.697361
 C        -0.146572        -0.297923        -0.167889
 O         0.878898        -1.149635         1.822750
 H         3.052745         1.335961         3.717571
 H         4.648701         1.114309         3.051159
 H         3.885759         2.678763         2.967873
 H         2.788107        -0.865864        -0.928436
 H         3.084729         2.042124        -0.589789
 H         0.992837         1.893760         1.634310
 H         0.041800         0.295978        -1.019382
 H        -0.326751        -1.299597        -0.565233
 H        -1.048773         0.005407         0.530937
 H         1.808230        -1.295745         2.066427
