19
Iteration:   405
 C         3.831678         1.439170         2.760130
 C         3.066264         0.983137         1.619056
 O         3.361228        -0.477556         1.390401
 C         2.549442        -0.286092         0.146285
 C         2.744764         1.254838         0.215193
 C         1.602302         1.225832         1.208724
 C         1.064684        -0.166028         0.810628
 C        -0.106474        -0.230841        -0.119004
 O         0.892070        -1.204311         1.823185
 H         3.215549         1.037918         3.839217
 H         4.887548         1.128260         2.878660
 H         3.470420         2.457984         2.820883
 H         2.942781        -0.845882        -0.739374
 H         2.990221         1.853696        -0.659737
 H         1.135661         2.023096         1.770171
 H        -0.748583         0.627023         0.301658
 H         0.174959         0.204488        -1.150420
 H        -0.611321        -1.158761        -0.306446
 H         1.875735        -1.319314         2.219678
