19
Iteration:  2172charge 0 multiplicity 1
 C         3.780386         1.413468         2.899452
 C         3.004386         0.926681         1.697196
 O         3.250269        -0.463752         1.348281
 C         2.529064        -0.194541         0.110933
 C         2.821781         1.271035         0.181580
 C         1.721684         1.274419         1.175330
 C         1.080065        -0.149893         0.842049
 C        -0.108377        -0.395775        -0.135573
 O         0.929402        -1.136184         1.754081
 H         3.273459         1.278804         3.782696
 H         4.786379         1.013890         2.850634
 H         3.805047         2.537244         2.878074
 H         2.775898        -0.877806        -0.661714
 H         3.293766         2.136104        -0.405641
 H         1.143554         1.991340         1.669673
 H        -0.145405         0.430033        -0.914036
 H        -0.050718        -1.324924        -0.656458
 H        -1.005736        -0.359052         0.328791
 H         1.715906        -1.228442         2.319209
