19
Iteration:  2841charge 0 multiplicity 1
 C         3.714084         1.423805         2.852898
 C         3.056400         0.892424         1.605697
 O         3.368593        -0.419183         1.319489
 C         2.551717        -0.288642         0.122361
 C         2.710169         1.277425         0.184581
 C         1.601788         1.136131         1.318062
 C         1.135690        -0.157201         0.782254
 C        -0.012467        -0.308646        -0.177322
 O         0.880433        -1.028532         1.832140
 H         3.482366         0.567172         3.519323
 H         4.833333         1.409076         2.643365
 H         3.435208         2.379962         3.241232
 H         2.734685        -1.073509        -0.593613
 H         3.087244         2.168469        -0.316904
 H         1.069521         1.981067         1.906075
 H         0.078150         0.462188        -0.933181
 H        -0.123477        -1.321611        -0.521765
 H        -0.976448         0.009357         0.305172
 H         1.723966        -1.374345         2.141798
