19
Iteration:  1668charge 0 multiplicity 1
 C         3.837863         1.656078         2.736369
 C         3.124606         0.880377         1.688827
 O         3.401414        -0.571122         1.332493
 C         2.528973        -0.314900         0.191108
 C         2.633195         1.299255         0.325473
 C         1.608827         1.101905         1.446137
 C         1.113129        -0.243371         0.816070
 C        -0.066012        -0.041169        -0.190746
 O         0.832930        -1.267758         1.627903
 H         3.466352         1.287192         3.721629
 H         4.906903         1.735395         2.515792
 H         3.631258         2.751731         2.592721
 H         2.773780        -0.921572        -0.706681
 H         2.749734         2.066863        -0.520312
 H         1.071473         1.837085         1.962464
 H         0.418237         0.249800        -1.058088
 H        -0.511024        -1.110292        -0.225863
 H        -0.871577         0.677177         0.053957
 H         1.666022        -1.480523         2.222176
