19
Iteration:  4102
 C         3.915243         1.791632         2.593005
 C         2.987714         0.962126         1.736700
 O         3.427412        -0.479731         1.479502
 C         2.575477        -0.304995         0.327869
 C         2.650813         1.295662         0.385430
 C         1.472499         1.022320         1.527348
 C         1.149856        -0.272670         0.778835
 C         0.033948        -0.154228        -0.377061
 O         0.745878        -1.340297         1.551982
 H         4.477656         1.217285         3.304784
 H         4.638175         2.117238         1.781785
 H         3.480292         2.637047         3.139873
 H         2.652605        -0.948669        -0.578713
 H         2.830804         2.061470        -0.329113
 H         1.080107         1.880147         2.126194
 H         0.147919         0.598568        -1.024584
 H         0.172305        -1.164408        -0.698549
 H        -0.862502         0.016236         0.245193
 H         1.593691        -1.641249         1.952422
