19
Iteration:  2653
 C         3.747603         1.393876         2.893856
 C         3.039338         0.949905         1.612350
 O         3.352434        -0.456151         1.356814
 C         2.582247        -0.264689         0.151201
 C         2.701410         1.264993         0.201282
 C         1.611107         1.229173         1.255574
 C         1.126852        -0.108768         0.819611
 C        -0.057784        -0.348682        -0.174324
 O         0.918025        -1.099229         1.745268
 H         3.413028         0.653468         3.666951
 H         4.806698         1.123058         2.735288
 H         3.715086         2.473503         3.166121
 H         2.663633        -1.081435        -0.641315
 H         2.678025         2.125287        -0.411251
 H         1.125254         2.032036         1.662896
 H         0.071004         0.428436        -0.793339
 H        -0.069291        -1.349411        -0.647746
 H        -1.106810        -0.130315         0.263429
 H         1.786469        -1.032157         2.330693
