19
Iteration:  2831charge 0 multiplicity 1
 C         3.771169         1.463225         2.792176
 C         3.064324         0.927128         1.659420
 O         3.385400        -0.491890         1.311687
 C         2.503315        -0.293963         0.179566
 C         2.721645         1.301825         0.257615
 C         1.610778         1.131568         1.333176
 C         1.092512        -0.130043         0.747990
 C        -0.070765        -0.245267        -0.292360
 O         0.925095        -1.102053         1.895560
 H         3.595206         0.937259         3.727413
 H         4.896725         1.375299         2.726455
 H         3.454531         2.449241         3.082920
 H         2.669714        -1.140635        -0.451914
 H         2.844426         2.175045        -0.361827
 H         0.941929         1.971705         1.708086
 H        -0.024043         0.371802        -1.244726
 H        -0.026774        -1.209142        -0.745598
 H        -1.003639        -0.085936         0.201882
 H         1.788187        -1.450776         1.996455
