19
Iteration:  3862
 C         3.919894         1.802146         2.599158
 C         3.033082         0.943318         1.700196
 O         3.463431        -0.402246         1.576571
 C         2.593838        -0.365381         0.254784
 C         2.545327         1.176481         0.290497
 C         1.568830         1.043235         1.489656
 C         1.146950        -0.280621         0.869445
 C         0.053324        -0.008784        -0.252312
 O         0.692417        -1.402153         1.496202
 H         3.936194         1.510419         3.590410
 H         4.808979         1.609386         2.030607
 H         3.717848         2.821147         2.250681
 H         2.934061        -1.068949        -0.519449
 H         2.629259         2.053570        -0.411766
 H         0.949718         1.789134         2.077611
 H         0.306164         0.579700        -1.090235
 H        -0.113170        -0.993822        -0.690408
 H        -0.985845         0.237495         0.177919
 H         1.402747        -1.661536         2.095220
