19
Iteration:  2899charge 0 multiplicity 1
 C         3.751858         1.562464         2.772350
 C         3.091985         0.865206         1.630757
 O         3.414375        -0.513011         1.364875
 C         2.622273        -0.257035         0.166298
 C         2.649860         1.237649         0.229338
 C         1.587783         1.099003         1.385981
 C         1.139504        -0.170476         0.762306
 C        -0.066246        -0.151380        -0.182511
 O         0.835633        -1.135155         1.770627
 H         3.752114         0.870127         3.635940
 H         4.827336         1.738652         2.550982
 H         3.138538         2.449171         3.100495
 H         2.794756        -0.883962        -0.736367
 H         2.836191         1.988392        -0.547124
 H         0.976818         1.788907         1.859977
 H         0.110935         0.335262        -1.218170
 H        -0.247800        -1.208882        -0.466014
 H        -0.834867         0.222109         0.399512
 H         1.740950        -1.414091         2.162801
