19
Iteration:  1049charge 0 multiplicity 1
 C         3.778516         1.555756         2.825970
 C         3.129696         0.843838         1.632402
 O         3.417497        -0.566623         1.313671
 C         2.613957        -0.340987         0.163193
 C         2.776641         1.201329         0.270522
 C         1.561703         1.215200         1.190237
 C         1.057091        -0.143715         0.766533
 C        -0.087312        -0.209681        -0.176318
 O         0.803120        -1.058472         1.862149
 H         3.489562         1.097969         3.741400
 H         4.786050         1.453523         2.863151
 H         3.509550         2.637686         2.748039
 H         2.614871        -1.035108        -0.647860
 H         3.027925         2.136373        -0.338597
 H         1.115159         1.978953         1.711584
 H        -1.035392        -0.557381         0.360781
 H        -0.242778         0.711854        -0.655772
 H         0.001519        -1.018521        -0.793994
 H         1.660222        -1.126937         2.209372
