19
Iteration:  2567charge 0 multiplicity 1
 C         3.892766         1.673357         2.720487
 C         3.120415         0.964668         1.722892
 O         3.386966        -0.427896         1.404146
 C         2.546750        -0.314154         0.221587
 C         2.674291         1.242694         0.280703
 C         1.586243         1.086423         1.388071
 C         1.066948        -0.247269         0.805481
 C        -0.001829        -0.035222        -0.233463
 O         0.754963        -1.419149         1.650538
 H         3.794109         1.323674         3.766363
 H         4.901313         1.675111         2.370290
 H         3.640904         2.714478         2.807094
 H         2.838265        -0.961012        -0.692305
 H         2.727505         2.112235        -0.423337
 H         0.917178         1.831229         1.701430
 H         0.299229         0.570483        -1.014536
 H        -0.144185        -1.057581        -0.629610
 H        -0.994124         0.280436         0.293839
 H         1.536680        -1.651762         2.162649
