19
Iteration:  2582
 C         3.795570         1.677034         2.815384
 C         3.043467         0.936398         1.635504
 O         3.384104        -0.517014         1.315024
 C         2.523011        -0.316722         0.139856
 C         2.748091         1.312618         0.272299
 C         1.606690         1.130624         1.391246
 C         1.125583        -0.266566         0.811608
 C        -0.039174        -0.132385        -0.188090
 O         0.840949        -1.334884         1.700513
 H         3.334164         1.165223         3.651144
 H         4.911050         1.557877         2.878649
 H         3.652711         2.750621         2.671255
 H         2.697446        -1.080121        -0.571639
 H         3.055877         2.105754        -0.342177
 H         1.139449         1.923271         2.048756
 H         0.292749         0.721968        -0.941512
 H        -0.467138        -0.995107        -0.694703
 H        -0.916591         0.308033         0.186002
 H         1.478926        -1.191714         2.410537
