19
Iteration:  1646charge 0 multiplicity 1
 C         3.963578         1.671899         2.578880
 C         3.048838         0.945126         1.725054
 O         3.346813        -0.440657         1.467531
 C         2.519890        -0.317869         0.192032
 C         2.599191         1.225823         0.333171
 C         1.584286         1.095830         1.515437
 C         1.093410        -0.278537         0.803094
 C         0.041951         0.048156        -0.235159
 O         0.770748        -1.429023         1.600145
 H         3.752907         1.406043         3.642040
 H         4.956982         1.381358         2.238187
 H         4.060354         2.774431         2.424245
 H         2.976630        -0.944857        -0.567556
 H         2.965662         2.068421        -0.309422
 H         0.822745         1.725338         1.860615
 H         0.240246         0.802900        -0.903931
 H        -0.274324        -1.005368        -0.589131
 H        -0.861071         0.337742         0.346000
 H         1.673934        -1.586937         1.914148
