19
Iteration:   235
 C         3.878113         1.753402         2.636004
 C         3.135694         0.830844         1.691271
 O         3.415619        -0.563146         1.307382
 C         2.519937        -0.350598         0.100482
 C         2.669513         1.196123         0.292475
 C         1.579236         1.100797         1.418774
 C         1.071841        -0.189414         0.928031
 C         0.075511        -0.062114        -0.213516
 O         0.659705        -1.252036         1.802075
 H         3.851256         1.575524         3.722036
 H         5.002643         1.629010         2.542527
 H         3.498308         2.802887         2.422988
 H         2.617411        -1.027853        -0.826632
 H         2.998279         2.018611        -0.330632
 H         1.063875         1.942151         1.874437
 H        -0.393069        -1.005669        -0.367688
 H        -0.659313         0.762106        -0.207263
 H         0.630477         0.056540        -1.133566
 H         1.436845        -1.331978         2.398678
