19
Iteration:  3656
 C         3.930343         1.869689         2.616439
 C         3.173594         0.988220         1.721025
 O         3.405768        -0.444469         1.445252
 C         2.568091        -0.429529         0.276914
 C         2.664242         1.231891         0.342668
 C         1.584292         0.996898         1.437239
 C         1.149968        -0.326499         0.797066
 C        -0.015099        -0.044714        -0.264342
 O         0.630788        -1.416293         1.582400
 H         3.665190         1.711146         3.637795
 H         5.005031         1.880631         2.499210
 H         3.627868         2.962733         2.497490
 H         2.907878        -0.985239        -0.618719
 H         2.708254         1.964069        -0.461286
 H         1.016091         1.859507         1.833745
 H         0.202931         0.921777        -0.500465
 H        -0.123036        -0.642871        -1.138433
 H        -0.957182        -0.046737         0.371241
 H         1.112577        -1.562577         2.397166
