19
Iteration:   161
 C         3.922231         1.511073         2.712679
 C         3.093997         0.939234         1.672964
 O         3.216084        -0.460358         1.519535
 C         2.477713        -0.403628         0.157867
 C         2.745255         1.142038         0.159951
 C         1.623621         1.238136         1.216836
 C         1.126820        -0.132347         0.806727
 C        -0.132922        -0.203772        -0.109067
 O         0.904484        -1.113432         1.734283
 H         3.712871         0.824553         3.633631
 H         4.953692         1.406421         2.535063
 H         3.827588         2.610527         2.967652
 H         2.945693        -1.184420        -0.476141
 H         3.193717         1.877545        -0.493250
 H         0.972669         2.021434         1.493301
 H         0.176781        -0.510318        -1.110405
 H        -0.783137        -0.996962         0.235413
 H        -0.623128         0.869903        -0.374254
 H         1.823204        -1.085202         2.199422
