19
Iteration:  4745charge 0 multiplicity 1
 C         3.912843         1.875095         2.549083
 C         3.150319         0.922241         1.674453
 O         3.355848        -0.512187         1.679111
 C         2.581475        -0.390960         0.363994
 C         2.577575         1.067810         0.252421
 C         1.635519         1.097783         1.463374
 C         1.181239        -0.291411         0.808225
 C         0.158076        -0.020948        -0.395701
 O         0.518606        -1.300702         1.562118
 H         3.486057         2.338209         3.472445
 H         4.830867         1.186203         2.701560
 H         4.184413         2.734357         1.796117
 H         3.024645        -0.988058        -0.443351
 H         2.756596         1.894284        -0.472185
 H         0.935638         1.765746         1.897447
 H         0.597188         0.670206        -1.064956
 H        -0.186549        -0.970332        -0.773641
 H        -0.722302         0.361706         0.194028
 H         1.144637        -1.375856         2.336281
