19
Iteration:   620charge 0 multiplicity 1
 C         3.656008         1.439497         2.887853
 C         3.150947         0.953651         1.604278
 O         3.433392        -0.503442         1.263301
 C         2.554517        -0.294761         0.073758
 C         2.676499         1.228224         0.150434
 C         1.707022         1.135093         1.287345
 C         1.059693        -0.172221         0.809628
 C        -0.078721        -0.190651        -0.141572
 O         0.833727        -1.099739         1.921173
 H         3.235437         0.942598         3.760292
 H         4.799295         1.372013         2.781511
 H         3.463882         2.500377         3.026841
 H         3.006780        -0.902980        -0.783182
 H         2.935733         2.058877        -0.508852
 H         1.310185         2.115990         1.648998
 H        -0.981688         0.395309         0.270403
 H         0.181835         0.101420        -1.213304
 H        -0.235285        -1.234866        -0.184270
 H         1.715543        -1.145222         2.271976
