19
Iteration:  2219
 C         3.785680         1.494127         2.828938
 C         3.036558         0.907516         1.656521
 O         3.402348        -0.435551         1.258492
 C         2.596042        -0.336942         0.107787
 C         2.746479         1.310992         0.254522
 C         1.611140         1.111705         1.330664
 C         1.043249        -0.243333         0.785039
 C         0.016211        -0.203615        -0.217222
 O         0.781191        -1.125360         1.881807
 H         3.251642         1.547874         3.835578
 H         4.772920         1.046055         2.743164
 H         3.884851         2.612980         2.696331
 H         2.779591        -1.129663        -0.659334
 H         2.816084         2.079647        -0.467209
 H         1.051767         1.898787         1.889594
 H         0.446213         0.421008        -0.948011
 H        -0.066431        -1.194354        -0.709841
 H        -1.037452         0.214128         0.096926
 H         1.555701        -1.268219         2.406411
