19
Iteration:  4467charge 0 multiplicity 1
 C         3.781763         1.716606         2.789382
 C         3.077314         0.982802         1.612800
 O         3.374150        -0.445072         1.439575
 C         2.579236        -0.442786         0.266292
 C         2.569368         1.181377         0.180587
 C         1.593417         1.079768         1.302548
 C         1.158067        -0.294397         0.826291
 C         0.038374        -0.058719        -0.297430
 O         0.825893        -1.269248         1.735524
 H         4.386421         0.932382         3.477206
 H         4.413169         2.616270         2.654715
 H         3.083211         2.159461         3.519341
 H         3.019880        -1.272372        -0.325459
 H         2.723313         1.987145        -0.480998
 H         0.980353         1.923855         1.684038
 H         0.307974         0.962656        -0.794051
 H        -0.026908        -0.762156        -1.105865
 H        -0.889573         0.062014         0.152846
 H         1.645709        -1.425894         2.333238
