19
Iteration:  4735charge 0 multiplicity 1
 C         3.903020         1.885719         2.478492
 C         3.122578         0.923680         1.695965
 O         3.422716        -0.511367         1.588408
 C         2.586886        -0.445723         0.352103
 C         2.675519         1.166583         0.380226
 C         1.604583         1.023483         1.475769
 C         1.094334        -0.267828         0.827463
 C         0.171687        -0.077851        -0.355491
 O         0.476318        -1.251085         1.561886
 H         3.265499         2.274324         3.318778
 H         4.794494         1.468112         3.017512
 H         4.357084         2.765297         1.886947
 H         2.939129        -1.125834        -0.444382
 H         2.982727         1.824839        -0.459178
 H         1.041848         1.842352         1.850477
 H         0.519891         0.547671        -1.172318
 H        -0.073711        -0.994169        -0.801715
 H        -0.754422         0.411120        -0.012951
 H         1.046537        -1.583611         2.251538
