19
Iteration:    43
 C         4.100654         1.699479         2.376032
 C         3.202845         0.869563         1.627384
 O         3.311567        -0.509365         1.606345
 C         2.523928        -0.426021         0.348964
 C         2.681959         1.174164         0.297604
 C         1.561249         1.135588         1.434833
 C         1.023031        -0.226694         0.781845
 C         0.022692        -0.053689        -0.269295
 O         0.585146        -1.202083         1.743999
 H         4.156746         1.409232         3.474027
 H         5.065426         1.605157         1.970465
 H         3.879832         2.790569         2.163122
 H         2.902826        -1.161920        -0.389997
 H         3.139324         1.888521        -0.374500
 H         0.991931         2.024380         1.765007
 H        -0.436776         0.894462        -0.184659
 H         0.393418        -0.191249        -1.209296
 H        -0.864761        -0.706578        -0.032182
 H         1.431368        -1.507003         2.141595
