19
Iteration:  4118
 C         3.875581         1.786780         2.687613
 C         3.103677         0.926453         1.749458
 O         3.393123        -0.477335         1.446472
 C         2.589111        -0.293361         0.191410
 C         2.640475         1.229145         0.339053
 C         1.555573         1.110895         1.407236
 C         1.093611        -0.231152         0.761366
 C         0.006440        -0.178012        -0.255003
 O         0.771882        -1.370949         1.627902
 H         4.358462         1.156986         3.485861
 H         4.581366         2.505937         2.351417
 H         3.191440         2.446314         3.236826
 H         2.996207        -0.940980        -0.576292
 H         2.925599         2.065472        -0.323465
 H         0.772011         1.757385         1.755762
 H         0.086275         0.715893        -1.033196
 H        -0.068867        -1.021059        -0.972782
 H        -0.975927        -0.110430         0.237780
 H         1.535652        -1.483239         2.160846
