19
Iteration:   192charge 0 multiplicity 1
 C         3.879808         1.517645         2.723273
 C         3.100996         0.960160         1.621357
 O         3.411027        -0.448653         1.397263
 C         2.563439        -0.340911         0.156195
 C         2.735164         1.162559         0.207989
 C         1.659107         1.197734         1.257931
 C         1.057623        -0.207543         0.825943
 C        -0.136521        -0.182644        -0.192901
 O         0.755698        -1.143959         1.869499
 H         3.538298         1.080940         3.680563
 H         4.838496         1.122583         2.670890
 H         3.685942         2.598617         2.873322
 H         3.022388        -1.064389        -0.588685
 H         3.041865         1.903552        -0.489662
 H         1.055434         2.088102         1.502312
 H         0.112472        -0.865331        -0.964541
 H        -1.103755        -0.344489         0.257760
 H        -0.291697         0.814880        -0.614451
 H         1.533272        -1.396042         2.293942
