19
Iteration:  1664
 C         3.879689         1.656273         2.704219
 C         3.108130         0.867210         1.678444
 O         3.387442        -0.546362         1.393297
 C         2.530820        -0.298490         0.194302
 C         2.610855         1.288409         0.304577
 C         1.584861         1.063746         1.449470
 C         1.137431        -0.223328         0.808838
 C        -0.053272        -0.041901        -0.186478
 O         0.840374        -1.278454         1.610327
 H         3.522554         1.386953         3.683363
 H         4.943596         1.645273         2.564931
 H         3.582778         2.729465         2.547526
 H         2.670752        -0.913868        -0.659429
 H         2.672905         2.018502        -0.446085
 H         1.120997         1.941784         2.131417
 H         0.437300         0.323071        -1.132452
 H        -0.510219        -1.057278        -0.395174
 H        -0.831469         0.681195         0.176629
 H         1.581880        -1.572636         2.114274
