19
Iteration:  2143
 C         3.809137         1.523461         2.802564
 C         3.123350         0.964321         1.646399
 O         3.370088        -0.478985         1.413136
 C         2.559253        -0.347000         0.230577
 C         2.689652         1.243988         0.225780
 C         1.587827         1.158622         1.245087
 C         1.106758        -0.195223         0.801506
 C        -0.074666        -0.170331        -0.216777
 O         0.878370        -1.161983         1.714351
 H         3.417624         0.928847         3.720838
 H         4.904780         1.469596         2.826677
 H         3.503914         2.615169         2.968602
 H         2.751659        -1.103468        -0.542183
 H         2.940722         2.121690        -0.432477
 H         0.948126         1.869141         1.708395
 H         0.034559         0.702501        -0.848203
 H        -0.322050        -1.155808        -0.690110
 H        -1.082565        -0.047766         0.418516
 H         1.733332        -1.538012         2.089326
