19
Iteration:  3762
 C         3.823514         1.471041         2.917500
 C         3.124441         0.982175         1.631845
 O         3.458216        -0.429652         1.318322
 C         2.568038        -0.293212         0.107552
 C         2.633129         1.295392         0.273673
 C         1.542197         1.151637         1.271078
 C         1.079667        -0.193577         0.778113
 C        -0.057252        -0.403814        -0.276161
 O         0.811167        -1.065300         1.874838
 H         3.663698         0.647627         3.684603
 H         4.897184         1.504684         2.714490
 H         3.319006         2.463267         3.120628
 H         2.837250        -0.946824        -0.727150
 H         2.813895         2.032727        -0.454800
 H         1.036172         1.984668         1.757071
 H         0.334130         0.399229        -1.088537
 H        -0.101307        -1.516464        -0.651299
 H        -0.965593         0.101290        -0.007960
 H         1.707098        -1.121823         2.205671
