19
Iteration:  3113charge 0 multiplicity 1
 C         3.794719         1.490997         2.851697
 C         3.038419         0.917451         1.660320
 O         3.447589        -0.467726         1.262563
 C         2.527207        -0.291320         0.137391
 C         2.650926         1.225441         0.302812
 C         1.583686         1.191815         1.328098
 C         1.091191        -0.159702         0.782703
 C        -0.029838        -0.241562        -0.288640
 O         0.864616        -1.123436         1.872645
 H         3.511522         0.877072         3.666494
 H         4.887867         1.499288         2.725405
 H         3.346622         2.473951         3.040554
 H         2.921939        -1.001291        -0.634180
 H         3.172529         1.874204        -0.499718
 H         1.032609         2.029310         1.724423
 H         0.105558         0.368543        -1.162285
 H        -0.177864        -1.241201        -0.638180
 H        -1.002737         0.083429         0.274853
 H         1.748017        -1.359164         2.131813
