19
Iteration:   938
 C         4.029477         1.766095         2.506605
 C         3.062138         0.921393         1.716514
 O         3.400748        -0.510230         1.502711
 C         2.525878        -0.340498         0.308896
 C         2.741248         1.198888         0.350108
 C         1.537371         1.126998         1.468910
 C         1.091884        -0.282307         0.806948
 C        -0.000274        -0.021999        -0.237891
 O         0.626321        -1.356168         1.586873
 H         4.203932         1.483688         3.549752
 H         4.958297         1.511909         2.109232
 H         3.764223         2.786409         2.442435
 H         2.890225        -0.962070        -0.614681
 H         2.832267         1.860187        -0.455048
 H         0.808957         1.888406         1.999425
 H        -0.787438         0.774666        -0.119581
 H         0.485189         0.277208        -1.212277
 H        -0.399197        -0.959129        -0.328026
 H         1.366560        -1.493815         2.245877
