19
Iteration:  3286charge 0 multiplicity 1
 C         3.786001         1.470703         2.897103
 C         3.033907         0.949331         1.656254
 O         3.536322        -0.443608         1.289477
 C         2.572117        -0.291731         0.173474
 C         2.695382         1.240017         0.218945
 C         1.500348         1.162186         1.276514
 C         1.093820        -0.160664         0.792204
 C        -0.022813        -0.259690        -0.284578
 O         0.806899        -1.103659         1.829603
 H         3.509693         0.777174         3.723419
 H         4.899125         1.607454         2.710677
 H         3.353717         2.439323         3.299095
 H         2.778533        -0.988816        -0.652854
 H         3.000626         1.846398        -0.588168
 H         0.993424         2.010283         1.860286
 H        -0.131038         0.393399        -1.049644
 H        -0.017139        -1.324416        -0.406689
 H        -1.038120        -0.166525         0.245270
 H         1.675703        -1.413194         2.273644
