19
Iteration:  3714
 C         3.932187         1.648125         2.869846
 C         3.068252         0.929879         1.669108
 O         3.319362        -0.481886         1.383053
 C         2.544393        -0.275662         0.149872
 C         2.668061         1.278871         0.287156
 C         1.562559         1.109106         1.262005
 C         1.089531        -0.236435         0.792356
 C        -0.027045        -0.261250        -0.310308
 O         0.830735        -1.210336         1.821375
 H         4.207359         0.815125         3.496115
 H         4.854483         2.071899         2.462179
 H         3.306371         2.368316         3.276423
 H         2.855949        -0.805118        -0.760391
 H         3.015597         2.100351        -0.390433
 H         0.988499         1.914830         1.749611
 H         0.251541         0.238321        -1.335906
 H        -0.250790        -1.305596        -0.629169
 H        -1.003408         0.292148        -0.031385
 H         1.729369        -1.191139         2.340975
