19
Iteration:   753charge 0 multiplicity 1
 C         3.927780         1.874090         2.527058
 C         3.072726         0.849678         1.746623
 O         3.540525        -0.552190         1.347699
 C         2.541047        -0.396791         0.303674
 C         2.595782         1.175250         0.356635
 C         1.594147         0.999335         1.527461
 C         1.069286        -0.245466         0.847121
 C         0.122146         0.022749        -0.284958
 O         0.540331        -1.290987         1.652781
 H         3.906785         1.736472         3.664088
 H         4.971635         1.864874         2.282432
 H         3.349095         2.739550         2.307319
 H         2.712778        -0.895597        -0.744968
 H         2.986918         1.816494        -0.478770
 H         1.187681         1.715014         2.214305
 H        -0.680825         0.720307         0.125437
 H         0.441796         0.650839        -1.187675
 H        -0.191329        -0.885444        -0.641055
 H         1.356942        -1.594486         2.256781
