19
Iteration:   305
 C         4.022829         1.694973         2.506428
 C         3.106785         0.976926         1.682499
 O         3.366576        -0.492479         1.512343
 C         2.546910        -0.351265         0.254461
 C         2.640942         1.221009         0.290315
 C         1.568459         1.203090         1.468184
 C         1.062964        -0.239846         0.830554
 C        -0.025296        -0.044118        -0.255929
 O         0.688328        -1.431898         1.647969
 H         4.321153         1.063689         3.426766
 H         5.039072         1.733357         2.199787
 H         3.556211         2.645497         2.819063
 H         2.903623        -1.029766        -0.478882
 H         2.937333         2.099181        -0.263445
 H         1.146108         2.229440         1.846811
 H        -1.033734        -0.075269         0.259471
 H         0.183015         0.849636        -0.880900
 H        -0.167366        -0.923854        -0.942158
 H         1.559933        -1.602792         2.218789
