19
Iteration:  3449charge 0 multiplicity 1
 C         3.946270         1.723999         2.574100
 C         3.006462         0.917658         1.693158
 O         3.486733        -0.446726         1.443902
 C         2.571846        -0.277311         0.305781
 C         2.612876         1.237406         0.383469
 C         1.514920         1.073604         1.459735
 C         1.104013        -0.191651         0.799865
 C         0.116969        -0.171760        -0.233636
 O         0.662008        -1.347058         1.547011
 H         4.247067         1.065533         3.327823
 H         4.715141         2.123186         1.946273
 H         3.457906         2.507816         3.178109
 H         2.755003        -0.958387        -0.574486
 H         3.102098         1.965973        -0.279187
 H         0.773714         1.775068         1.857233
 H         0.323631         0.569945        -0.989484
 H        -0.034900        -1.166212        -0.631421
 H        -0.926338         0.151207         0.191714
 H         1.141145        -1.344565         2.413427
