19
Iteration:  1583
 C         3.966994         1.736830         2.608664
 C         3.098969         0.850238         1.712486
 O         3.446162        -0.498825         1.345223
 C         2.474364        -0.320553         0.225413
 C         2.642359         1.261299         0.331820
 C         1.587375         1.073636         1.537752
 C         1.068180        -0.197389         0.838809
 C         0.127315        -0.068640        -0.308083
 O         0.598529        -1.319166         1.711576
 H         4.099490         1.335755         3.633307
 H         5.027559         1.778392         2.183466
 H         3.481747         2.711438         2.649098
 H         2.792821        -0.899400        -0.680470
 H         2.678160         2.100872        -0.415995
 H         1.114512         1.704396         2.185964
 H        -0.497166         0.931069        -0.473778
 H         0.597085        -0.323765        -1.248071
 H        -0.602850        -0.845199        -0.107709
 H         1.416062        -1.699505         2.092695
