19
Iteration:  3119
 C         3.788071         1.556951         2.843998
 C         3.072855         0.863681         1.698914
 O         3.429794        -0.475974         1.285557
 C         2.519363        -0.315508         0.123441
 C         2.627548         1.215199         0.223276
 C         1.573514         1.151803         1.378476
 C         1.127890        -0.197511         0.788974
 C        -0.024978        -0.220497        -0.293863
 O         0.854196        -1.085028         1.838941
 H         3.518292         0.990006         3.835219
 H         4.860245         1.441771         2.645181
 H         3.548460         2.601839         3.115450
 H         3.023135        -0.863716        -0.646670
 H         2.822492         1.933007        -0.510223
 H         1.107905         1.987660         1.922401
 H         0.098396         0.660704        -1.086918
 H        -0.111801        -1.295602        -0.636309
 H        -0.940076         0.037293         0.169962
 H         1.733804        -1.426148         2.124129
