19
Iteration:   743charge 0 multiplicity 1
 C         3.964124         1.896849         2.529502
 C         3.155500         0.840741         1.742429
 O         3.480017        -0.504983         1.388468
 C         2.530189        -0.454865         0.259584
 C         2.606346         1.161510         0.439163
 C         1.585133         0.993514         1.486584
 C         1.097833        -0.268331         0.853373
 C         0.075850         0.074564        -0.281709
 O         0.543692        -1.300873         1.628787
 H         3.971422         1.754632         3.659971
 H         4.931836         1.905959         2.093218
 H         3.631644         2.914035         2.288151
 H         2.843163        -1.077472        -0.650077
 H         2.648012         2.027281        -0.268009
 H         0.963288         1.774714         1.945749
 H        -0.958760         0.416006         0.012074
 H         0.666031         0.624748        -1.072736
 H        -0.175625        -0.861769        -0.593054
 H         1.330572        -1.787091         2.053011
