19
Iteration:  1519charge 0 multiplicity 1
 C         3.837199         1.540370         2.831824
 C         3.106383         0.991667         1.614877
 O         3.374305        -0.540846         1.365135
 C         2.550498        -0.382110         0.185950
 C         2.765702         1.225212         0.222642
 C         1.590839         1.258468         1.211026
 C         1.100560        -0.160256         0.735144
 C        -0.080845        -0.179685        -0.111759
 O         0.777109        -1.195024         1.786930
 H         3.630968         0.881361         3.645158
 H         4.954940         1.517997         2.810179
 H         3.414198         2.387573         3.189959
 H         2.849166        -0.986152        -0.743086
 H         3.006935         1.936615        -0.584045
 H         1.131368         2.066290         1.632287
 H        -0.968848         0.103359         0.586920
 H        -0.090710         0.621062        -0.710092
 H        -0.024960        -1.122181        -0.534899
 H         1.644956        -1.417833         2.078248
