19
Iteration:  1724
 C         3.768407         1.338706         2.880661
 C         3.042802         0.952619         1.599923
 O         3.417298        -0.434585         1.312972
 C         2.572006        -0.295876         0.091516
 C         2.635455         1.276812         0.199433
 C         1.572756         1.217203         1.338523
 C         1.141512        -0.213296         0.769832
 C        -0.072449        -0.227360        -0.195484
 O         0.912474        -1.054899         1.829096
 H         3.702967         0.439187         3.597469
 H         4.914461         1.310740         2.976938
 H         3.246501         2.145001         3.362155
 H         2.689173        -1.082609        -0.731271
 H         2.885348         2.127865        -0.463298
 H         1.095332         1.971673         1.773218
 H         0.166371        -0.076111        -1.287151
 H        -0.419772        -1.281726        -0.029624
 H        -0.852685         0.478534         0.053214
 H         1.789692        -1.037696         2.340802
