19
Iteration:  1165charge 0 multiplicity 1
 C         3.932948         1.869083         2.507405
 C         3.105019         0.880904         1.752362
 O         3.562151        -0.560325         1.358344
 C         2.539359        -0.361616         0.274602
 C         2.625388         1.178807         0.388147
 C         1.598820         1.005874         1.533732
 C         1.036144        -0.254374         0.860648
 C         0.121729         0.052881        -0.306043
 O         0.471386        -1.312894         1.697292
 H         4.348245         1.420552         3.424639
 H         4.881115         1.997774         1.933976
 H         3.426602         2.822022         2.497639
 H         2.779260        -1.075952        -0.594249
 H         2.783863         2.022667        -0.348235
 H         0.910895         1.644232         1.959487
 H        -0.721712         0.717736        -0.263948
 H         0.917527         0.313515        -1.007993
 H        -0.346777        -0.894876        -0.563695
 H         1.378711        -1.727582         2.036814
