19
Iteration:   303charge 0 multiplicity 1
 C         4.019178         1.686472         2.503650
 C         3.105219         0.984287         1.678384
 O         3.358165        -0.481822         1.513331
 C         2.551071        -0.346356         0.257133
 C         2.657849         1.221924         0.298332
 C         1.561217         1.212135         1.466415
 C         1.071678        -0.253385         0.838060
 C        -0.034216        -0.042619        -0.258699
 O         0.687001        -1.441398         1.646456
 H         4.315134         1.015102         3.446444
 H         5.065819         1.780955         2.106228
 H         3.617986         2.723596         2.816222
 H         2.893792        -1.083817        -0.455763
 H         2.963316         2.112947        -0.311361
 H         1.164568         2.146913         1.828090
 H        -0.988617        -0.067084         0.222502
 H         0.141921         0.883240        -0.765478
 H        -0.146271        -0.898567        -0.994148
 H         1.472119        -1.662676         2.240315
