19
Iteration:  1712
 C         3.710094         1.381446         2.867907
 C         3.130472         0.910162         1.596317
 O         3.438755        -0.479202         1.259720
 C         2.645556        -0.287941         0.129408
 C         2.619286         1.298191         0.234064
 C         1.592683         1.092926         1.313635
 C         1.114885        -0.116447         0.756721
 C        -0.056303        -0.218257        -0.159323
 O         0.842404        -1.055843         1.849833
 H         3.379758         0.503182         3.515216
 H         4.778517         1.634296         2.683090
 H         3.304096         2.301342         3.321030
 H         2.978104        -0.902169        -0.758964
 H         2.806039         2.278281        -0.328085
 H         1.044878         1.810416         1.779502
 H         0.164693        -0.166933        -1.195501
 H        -0.652026        -1.204429         0.052958
 H        -0.752448         0.584316         0.136276
 H         1.791330        -1.254539         2.255714
