19
Iteration:  2527charge 0 multiplicity 1
 C         4.062269         1.784626         2.483169
 C         3.045752         0.921446         1.799377
 O         3.403912        -0.393903         1.486520
 C         2.578430        -0.286001         0.264250
 C         2.594886         1.256568         0.402426
 C         1.496421         0.971631         1.530459
 C         1.114112        -0.277179         0.865407
 C         0.121732        -0.037391        -0.349505
 O         0.575679        -1.453756         1.557744
 H         4.645716         1.225616         3.264860
 H         4.833808         1.939635         1.678843
 H         3.628609         2.663313         2.959440
 H         2.844341        -1.096425        -0.377129
 H         2.757042         2.075936        -0.247444
 H         0.899957         1.769893         1.913339
 H         0.339663         0.907123        -0.994631
 H         0.236991        -0.848473        -1.068039
 H        -0.871565         0.128401         0.010363
 H         1.253680        -1.479503         2.297318
