19
Iteration:  2512charge 0 multiplicity 1
 C         4.099434         1.821514         2.517070
 C         3.094055         0.905735         1.773944
 O         3.432812        -0.484432         1.447547
 C         2.509583        -0.305926         0.276413
 C         2.514615         1.203719         0.475684
 C         1.554270         1.132153         1.556869
 C         1.034031        -0.365693         0.799627
 C         0.187976        -0.058180        -0.383087
 O         0.602188        -1.425335         1.580737
 H         4.616503         1.384293         3.375070
 H         4.771909         2.357522         1.915382
 H         3.464639         2.637507         2.771111
 H         2.881154        -0.635764        -0.764074
 H         2.666170         2.059775        -0.273213
 H         0.885348         1.898898         1.978255
 H         0.466618         0.867532        -0.682790
 H         0.214979        -0.846747        -1.149325
 H        -0.959659        -0.028611        -0.162068
 H         0.915068        -1.418526         2.432714
