19
Iteration:    70
 C         4.100945         1.773634         2.539213
 C         3.177604         0.976451         1.683936
 O         3.444427        -0.468241         1.384190
 C         2.474201        -0.484494         0.357102
 C         2.617011         1.029161         0.223710
 C         1.616664         1.151273         1.443236
 C         1.077986        -0.241859         0.895091
 C         0.113931        -0.009412        -0.262343
 O         0.448815        -1.252178         1.749681
 H         4.034544         1.441820         3.544822
 H         5.176166         1.511746         2.226388
 H         3.944469         2.829909         2.465708
 H         2.621145        -1.238677        -0.437555
 H         2.616388         1.724940        -0.635780
 H         0.995787         2.085994         1.459932
 H        -0.030385         1.080013        -0.521434
 H         0.392114        -0.593405        -1.233682
 H        -0.851102        -0.386523         0.078457
 H         1.076713        -1.534349         2.445643
