19
Iteration:   534
 C         4.043689         1.775685         2.511192
 C         3.049907         0.885147         1.743750
 O         3.456600        -0.593560         1.418765
 C         2.514319        -0.359652         0.279887
 C         2.635905         1.174244         0.353871
 C         1.549466         1.189463         1.488818
 C         1.090537        -0.209405         0.846006
 C         0.044177        -0.054525        -0.267124
 O         0.616216        -1.324450         1.631915
 H         3.993321         1.606327         3.613409
 H         5.078343         1.850486         2.119680
 H         3.608792         2.751556         2.348485
 H         2.764443        -1.073774        -0.545937
 H         2.951102         2.023199        -0.287594
 H         0.997221         2.074190         1.868312
 H        -0.987129        -0.356495         0.084179
 H         0.160922         0.984152        -0.728892
 H         0.159836        -0.842333        -1.004882
 H         1.381649        -1.416516         2.335196
