19
Iteration:  3556charge 0 multiplicity 1
 C         3.779132         1.521572         2.821714
 C         3.032015         0.982383         1.697463
 O         3.388763        -0.464519         1.334279
 C         2.616622        -0.238120         0.137911
 C         2.688445         1.308264         0.216080
 C         1.536244         1.171234         1.274259
 C         1.164252        -0.217785         0.785472
 C        -0.019788        -0.274963        -0.152219
 O         0.816164        -1.216770         1.760610
 H         3.224426         1.569914         3.845023
 H         4.676416         0.990121         3.153860
 H         4.163472         2.522961         2.456322
 H         2.889769        -0.950363        -0.703115
 H         2.916821         2.303178        -0.294054
 H         0.968975         1.868960         1.844844
 H         0.226663         0.125507        -1.207348
 H        -0.211228        -1.359702        -0.324373
 H        -0.877534         0.159358         0.348437
 H         1.595599        -1.618704         2.074521
