19
Iteration:  1395
 C         4.005564         1.775100         2.459154
 C         3.095371         0.909868         1.747257
 O         3.493043        -0.535308         1.448119
 C         2.560168        -0.381611         0.297818
 C         2.677758         1.191609         0.357687
 C         1.570536         1.038589         1.452405
 C         1.049188        -0.263553         0.831210
 C         0.063088         0.077961        -0.239316
 O         0.498677        -1.343728         1.669082
 H         4.215381         1.512129         3.507212
 H         4.904992         1.854331         1.927933
 H         3.560472         2.842965         2.379410
 H         2.727427        -1.081556        -0.460095
 H         2.919481         2.033762        -0.379553
 H         0.969038         1.892909         1.913375
 H        -0.943794        -0.081099         0.139717
 H         0.492504         0.977916        -0.756638
 H         0.033496        -0.767870        -1.012677
 H         1.400534        -1.569865         2.085389
