19
Iteration:  1270
 C         3.755315         1.489076         2.829017
 C         3.093308         0.813575         1.623072
 O         3.390045        -0.561280         1.243574
 C         2.524921        -0.305114         0.114231
 C         2.790641         1.300534         0.233517
 C         1.610812         1.195383         1.292575
 C         1.034436        -0.164652         0.842947
 C        -0.071874        -0.285605        -0.143765
 O         0.859131        -1.021676         1.856284
 H         3.124776         1.477992         3.722519
 H         4.888830         1.246996         2.932693
 H         3.675113         2.531034         2.592854
 H         2.609513        -1.144249        -0.667318
 H         3.431778         2.118039        -0.222014
 H         1.143802         2.193278         1.748428
 H        -1.070242        -0.229565         0.312261
 H        -0.005883         0.621953        -0.879377
 H         0.132168        -1.199358        -0.856372
 H         1.648505        -1.070666         2.301517
