19
Iteration:  4992
 C         3.918139         1.786458         2.627107
 C         3.138971         0.953899         1.715642
 O         3.471210        -0.435767         1.473379
 C         2.635198        -0.407931         0.317020
 C         2.636990         1.170216         0.303000
 C         1.566691         1.049837         1.375225
 C         1.135630        -0.300570         0.829675
 C         0.171609        -0.151625        -0.436078
 O         0.384689        -1.194997         1.756007
 H         3.240680         2.511289         3.165733
 H         4.438730         1.185856         3.448801
 H         4.724990         2.346238         2.046806
 H         2.863616        -1.042318        -0.569584
 H         2.850072         1.912100        -0.493900
 H         1.043910         1.821917         1.885388
 H         0.456506         0.757436        -0.854500
 H         0.546529        -0.984535        -1.140478
 H        -0.955164        -0.295426        -0.254266
 H         1.062181        -1.588497         2.410150
