19
Iteration:  3316
 C         3.692227         1.500909         2.842860
 C         3.040635         0.929145         1.622901
 O         3.232662        -0.519085         1.393547
 C         2.542852        -0.252657         0.121701
 C         2.739272         1.352382         0.192851
 C         1.578524         1.180372         1.213927
 C         1.209460        -0.250590         0.788088
 C        -0.017635        -0.239162        -0.157364
 O         0.958126        -1.154933         1.802427
 H         3.409000         0.951119         3.770994
 H         4.749886         1.309713         2.888395
 H         3.511855         2.543962         2.917888
 H         2.850114        -0.951692        -0.644871
 H         3.407910         1.972737        -0.460370
 H         1.120604         1.994379         1.815933
 H        -0.233669         0.799492        -0.770844
 H         0.075798        -1.203912        -0.775628
 H        -0.850798        -0.300476         0.456246
 H         1.895183        -1.235977         2.247353
