19
Iteration:  3647
 C         3.938560         1.899330         2.641570
 C         3.157245         0.968644         1.687221
 O         3.507913        -0.434796         1.483956
 C         2.586219        -0.378993         0.287069
 C         2.594947         1.155302         0.341930
 C         1.634783         0.986812         1.468578
 C         1.054990        -0.317862         0.785238
 C        -0.030092        -0.038282        -0.270510
 O         0.617940        -1.388609         1.544688
 H         3.690636         1.788405         3.635316
 H         5.022378         1.695199         2.572193
 H         3.803369         2.911915         2.266929
 H         2.826769        -1.108698        -0.499554
 H         2.664346         2.013999        -0.237483
 H         0.995288         1.811780         1.929026
 H         0.036634         0.898347        -0.763507
 H        -0.057116        -0.725848        -1.111494
 H        -1.077885        -0.168098         0.300383
 H         1.259102        -1.516441         2.242291
