19
Iteration:  3988
 C         3.617091         1.604189         2.826501
 C         3.046973         0.873166         1.635957
 O         3.404597        -0.505913         1.412898
 C         2.578876        -0.307740         0.170496
 C         2.714768         1.252546         0.244037
 C         1.550210         1.142209         1.278101
 C         1.133078        -0.217512         0.744658
 C        -0.072340        -0.173247        -0.132843
 O         1.042890        -1.202973         1.707110
 H         3.094876         1.327729         3.869843
 H         4.661347         1.161047         2.881428
 H         3.301469         2.692770         2.798032
 H         2.960310        -0.734202        -0.748269
 H         2.769465         2.051291        -0.500367
 H         1.079788         2.081310         1.733792
 H        -0.146935         0.792909        -0.782905
 H        -0.244897        -1.029155        -0.811135
 H        -0.981421        -0.048035         0.338403
 H         1.949182        -1.305304         2.180682
