19
Iteration:  2724charge 0 multiplicity 1
 C         3.882490         1.786547         2.494216
 C         3.114113         0.912558         1.617673
 O         3.467583        -0.497224         1.499278
 C         2.527803        -0.355163         0.280686
 C         2.601871         1.172259         0.357558
 C         1.558851         0.976225         1.590080
 C         1.125513        -0.276805         0.888429
 C         0.105032         0.046050        -0.237161
 O         0.635035        -1.329629         1.515809
 H         4.018867         1.289584         3.448714
 H         4.877713         1.978695         1.994823
 H         3.460571         2.810726         2.545323
 H         2.922536        -0.806911        -0.597595
 H         2.773597         1.968467        -0.406802
 H         0.928548         1.761695         2.090187
 H         0.620102         0.831141        -0.982249
 H        -0.055600        -0.968622        -0.659832
 H        -0.826605         0.384875         0.123930
 H         1.062576        -1.436103         2.392426
