19
Iteration:  3587
 C         3.943144         1.648643         2.741088
 C         3.091742         0.969499         1.714769
 O         3.377263        -0.441573         1.384666
 C         2.520233        -0.255126         0.228240
 C         2.571464         1.190378         0.283749
 C         1.484328         1.081846         1.440339
 C         1.092145        -0.276570         0.804600
 C         0.029547        -0.150088        -0.371599
 O         0.863651        -1.312852         1.729723
 H         3.324282         2.062473         3.646546
 H         4.863653         1.004959         2.851071
 H         4.311815         2.634759         2.328259
 H         2.700277        -0.867369        -0.670078
 H         2.662022         2.013688        -0.427285
 H         0.925637         1.830108         2.001608
 H         0.550213         0.544612        -1.168602
 H        -0.182114        -1.143839        -0.851770
 H        -0.870549         0.244899        -0.041888
 H         1.483337        -1.027791         2.495740
