19
Iteration:  4575
 C         3.808365         1.652633         2.804093
 C         3.098924         0.995300         1.655207
 O         3.440833        -0.401958         1.422564
 C         2.569449        -0.349826         0.213909
 C         2.550849         1.118432         0.175530
 C         1.587515         1.055462         1.382882
 C         1.128930        -0.255735         0.816285
 C         0.123580        -0.116009        -0.330149
 O         0.689514        -1.175262         1.790808
 H         4.879402         1.830590         2.552213
 H         3.302202         2.547999         2.975425
 H         3.612287         0.929581         3.550620
 H         2.844828        -1.131986        -0.500441
 H         2.832569         1.824780        -0.600874
 H         0.995427         1.773431         1.924080
 H         0.633905         0.484570        -1.194294
 H         0.113628        -1.149022        -0.646041
 H        -0.873839         0.194326        -0.158031
 H         1.574440        -1.529793         2.160534
