19
Iteration:   773
 C         3.824650         1.751795         2.591650
 C         3.143730         0.854163         1.609526
 O         3.460241        -0.492891         1.367828
 C         2.554665        -0.405462         0.189673
 C         2.658008         1.234269         0.348121
 C         1.610630         1.033629         1.511293
 C         1.137608        -0.253083         0.890306
 C         0.081757        -0.002044        -0.253671
 O         0.595059        -1.269237         1.710648
 H         3.721972         1.311201         3.608640
 H         4.936384         1.695633         2.379490
 H         3.430597         2.726718         2.519018
 H         2.795109        -1.059701        -0.765838
 H         2.793713         2.143011        -0.280823
 H         1.022061         1.795382         1.850945
 H        -0.746688         0.671801        -0.077313
 H         0.671110         0.419217        -1.124634
 H        -0.325172        -1.015094        -0.516737
 H         1.097849        -1.325228         2.596207
