19
Iteration:  2817charge 0 multiplicity 1
 C         3.887489         1.582841         2.816781
 C         3.085428         0.876087         1.704584
 O         3.367016        -0.537571         1.334669
 C         2.517672        -0.300138         0.144229
 C         2.648662         1.262207         0.308075
 C         1.538931         1.219051         1.295646
 C         1.048396        -0.226221         0.832237
 C        -0.035617        -0.210585        -0.328543
 O         0.895269        -1.176603         1.833329
 H         3.590243         1.157567         3.822948
 H         4.981240         1.482432         2.624256
 H         3.645014         2.634344         2.680017
 H         2.803904        -0.731494        -0.842228
 H         3.046420         1.988873        -0.513772
 H         1.030655         2.109460         1.913227
 H         0.151680         0.597578        -0.934893
 H        -0.022530        -1.206373        -0.820724
 H        -1.176347         0.019393         0.023345
 H         1.875267        -1.330559         2.172870
