19
Iteration:  1692
 C         3.759082         1.549374         2.878471
 C         3.079343         0.819062         1.674476
 O         3.476848        -0.474627         1.219842
 C         2.550802        -0.224478         0.058776
 C         2.765653         1.274377         0.260760
 C         1.583416         1.122499         1.332274
 C         1.131879        -0.223059         0.791070
 C        -0.102431        -0.168003        -0.181659
 O         0.784841        -1.205352         1.844878
 H         3.420048         0.949107         3.751330
 H         4.848376         1.906729         2.731079
 H         3.331640         2.531254         2.948025
 H         2.538912        -0.856942        -0.895657
 H         3.152254         2.110136        -0.352840
 H         1.224893         1.895350         1.892424
 H         0.298742         0.040179        -1.233664
 H        -0.702507        -1.005851         0.015196
 H        -0.662476         0.709951         0.053529
 H         1.570211        -1.464337         2.364525
