19
Iteration:   846charge 0 multiplicity 1
 C         3.874375         1.546652         2.814952
 C         3.063641         0.949367         1.678010
 O         3.255136        -0.591364         1.382496
 C         2.522225        -0.294552         0.042366
 C         2.742948         1.168067         0.279188
 C         1.610142         1.243899         1.285442
 C         1.092635        -0.163953         0.730747
 C        -0.060665        -0.286601        -0.152996
 O         0.882482        -1.043059         1.790684
 H         3.638044         0.950391         3.662118
 H         4.971799         1.358640         2.734257
 H         3.487533         2.546777         2.997043
 H         2.806729        -0.915215        -0.763093
 H         3.322485         1.911017        -0.296325
 H         1.011419         2.002776         1.615400
 H        -0.940333        -0.366996         0.405585
 H        -0.193496         0.544811        -0.780267
 H         0.238603        -1.244170        -0.750559
 H         1.722533        -0.851764         2.354231
