19
Iteration:  2906charge 0 multiplicity 1
 C         3.768709         1.619109         2.731554
 C         3.079764         0.878946         1.652635
 O         3.377273        -0.534147         1.372995
 C         2.614037        -0.301412         0.121281
 C         2.633878         1.248234         0.276944
 C         1.585502         1.107188         1.363337
 C         1.119644        -0.194904         0.826598
 C         0.025643        -0.154379        -0.206042
 O         0.817639        -1.178481         1.764890
 H         3.873140         1.043161         3.661773
 H         4.881909         1.720856         2.540257
 H         3.365410         2.558987         3.061850
 H         2.720676        -0.764623        -0.832262
 H         2.812923         2.106388        -0.278611
 H         0.974669         1.970760         1.778621
 H         0.115487         0.503950        -1.101919
 H        -0.280023        -1.142555        -0.498239
 H        -0.814468         0.368228         0.419559
 H         1.722102        -1.662984         1.931877
