19
Iteration:  3434charge 0 multiplicity 1
 C         4.009580         1.795037         2.569119
 C         3.033926         0.934424         1.790849
 O         3.363328        -0.442776         1.434829
 C         2.597364        -0.324302         0.224479
 C         2.594784         1.299585         0.370230
 C         1.539326         1.072973         1.515417
 C         1.149421        -0.337467         0.856843
 C         0.126899        -0.119627        -0.326555
 O         0.595672        -1.381434         1.576098
 H         4.678904         1.258204         3.293550
 H         4.878137         2.101698         1.965669
 H         3.473142         2.679461         2.846062
 H         2.932327        -0.941728        -0.585005
 H         2.598680         2.157579        -0.256937
 H         0.962894         1.799683         2.131310
 H         0.573557         0.533145        -1.248059
 H        -0.015790        -1.193796        -0.684799
 H        -0.753689         0.283646         0.021457
 H         1.117691        -1.608769         2.425651
