19
Iteration:  3465charge 0 multiplicity 1
 C         3.881845         1.666251         2.710188
 C         3.103492         0.939698         1.729844
 O         3.497939        -0.425224         1.463733
 C         2.549385        -0.335042         0.190033
 C         2.609030         1.206453         0.290692
 C         1.535584         1.135647         1.386542
 C         1.114771        -0.262898         0.796781
 C        -0.061653        -0.137159        -0.312341
 O         0.756639        -1.303727         1.674958
 H         4.167343         0.932891         3.582829
 H         4.795352         2.177148         2.205943
 H         3.311299         2.455808         3.236092
 H         2.903336        -0.995105        -0.575770
 H         2.847190         2.037441        -0.382331
 H         1.038342         1.993795         1.852508
 H         0.120534         0.683160        -1.086325
 H        -0.110323        -1.047783        -0.952214
 H        -1.003984        -0.068279         0.211264
 H         1.484368        -1.328977         2.275042
