19
Iteration:     5charge 0 multiplicity 1
 C         3.984821         1.665982         2.581953
 C         3.088869         0.861485         1.626574
 O         3.301099        -0.551091         1.479213
 C         2.498622        -0.450161         0.271666
 C         2.739024         1.106905         0.175412
 C         1.661833         1.171702         1.269098
 C         1.063126        -0.168667         0.839878
 C        -0.036883        -0.114644        -0.172621
 O         0.677179        -1.084682         1.837555
 H         3.979142         1.379381         3.633042
 H         5.055718         1.380696         2.213229
 H         3.840608         2.730529         2.515134
 H         2.795306        -1.164120        -0.481693
 H         3.042108         1.800507        -0.617261
 H         1.253321         2.075773         1.675909
 H        -0.949888         0.459977         0.222109
 H         0.336201         0.573609        -1.043275
 H        -0.159781        -1.106443        -0.563817
 H         1.565435        -1.096468         2.367605
