19
Iteration:  1408
 C         4.032903         1.788142         2.531390
 C         3.117967         0.902476         1.677966
 O         3.449364        -0.475089         1.417684
 C         2.532329        -0.406869         0.288476
 C         2.625923         1.135169         0.286946
 C         1.625713         1.027093         1.508107
 C         1.112012        -0.261257         0.908089
 C         0.112303         0.037581        -0.287225
 O         0.511845        -1.319860         1.654264
 H         3.956662         1.531363         3.594875
 H         5.029052         1.651200         2.167166
 H         3.704806         2.880480         2.433957
 H         2.810976        -1.029519        -0.538806
 H         2.517186         1.966408        -0.417647
 H         0.884498         1.920341         1.905052
 H        -1.006863         0.037952         0.180227
 H         0.017430         1.081421        -0.601427
 H         0.280719        -0.606097        -1.175447
 H         0.931209        -1.657667         2.424642
