19
Iteration:  1459charge 0 multiplicity 1
 C         3.953275         1.577810         2.708386
 C         3.035923         0.912712         1.733171
 O         3.411768        -0.491220         1.348507
 C         2.553761        -0.349394         0.184800
 C         2.660025         1.197071         0.248042
 C         1.611738         1.140872         1.360272
 C         1.046556        -0.213323         0.776482
 C         0.005057        -0.142342        -0.224112
 O         0.695808        -1.157634         1.838233
 H         3.500223         1.521686         3.730044
 H         4.963612         1.207087         2.590885
 H         4.060140         2.645757         2.279378
 H         2.741093        -0.983543        -0.671135
 H         3.150247         1.986237        -0.399534
 H         1.022957         2.034484         1.687258
 H        -0.812520        -0.741065         0.035386
 H        -0.201097         0.958528        -0.503840
 H         0.291907        -0.534618        -1.268369
 H         1.574995        -1.458846         2.180292
