19
Iteration:  2195
 C         3.791577         1.428715         2.847265
 C         3.088219         0.871904         1.646018
 O         3.420999        -0.532624         1.343088
 C         2.563513        -0.289200         0.124673
 C         2.655725         1.306259         0.316686
 C         1.558681         1.232119         1.259853
 C         1.069180        -0.144790         0.693295
 C        -0.059628        -0.319291        -0.245636
 O         0.897952        -1.008546         1.858081
 H         3.115397         1.358184         3.649630
 H         4.695274         0.863992         2.931040
 H         3.973429         2.562380         2.946663
 H         2.953315        -0.844185        -0.689796
 H         3.161385         2.054165        -0.427381
 H         0.866547         1.877768         1.642341
 H        -0.336529         0.303202        -1.113855
 H        -0.131036        -1.353453        -0.475984
 H        -0.807753        -0.220779         0.520273
 H         1.818394        -1.225756         2.174859
