19
Iteration:  4339
 C         3.818172         1.773363         2.674593
 C         3.052585         0.924610         1.655146
 O         3.449731        -0.446282         1.478625
 C         2.643285        -0.345555         0.284969
 C         2.515350         1.191419         0.277204
 C         1.570269         1.033683         1.387129
 C         1.157855        -0.261172         0.792529
 C         0.058366        -0.045236        -0.278503
 O         0.794354        -1.340775         1.639429
 H         3.190705         2.049146         3.527351
 H         4.685245         1.223114         3.138520
 H         4.177415         2.729302         2.341602
 H         2.824743        -1.048657        -0.538045
 H         2.639256         1.916412        -0.506289
 H         0.956371         1.718695         2.028584
 H        -0.108493         0.891407        -0.993165
 H        -0.051380        -0.970141        -0.966656
 H        -0.952136        -0.001633         0.184156
 H         1.364136        -1.438272         2.462753
