19
Iteration:  1400charge 0 multiplicity 1
 C         4.007364         1.777713         2.482756
 C         3.083473         0.917715         1.720404
 O         3.492424        -0.524599         1.436130
 C         2.551279        -0.375566         0.325384
 C         2.685039         1.182250         0.314124
 C         1.586240         1.011065         1.460116
 C         1.075447        -0.238426         0.871977
 C         0.089905         0.058515        -0.264100
 O         0.489476        -1.349529         1.667192
 H         4.171872         1.591691         3.548542
 H         5.045017         1.777931         1.986315
 H         3.606628         2.755240         2.399382
 H         2.693141        -1.059492        -0.582713
 H         2.693301         2.008983        -0.339670
 H         0.924445         1.818326         1.835441
 H        -1.014189         0.039309         0.142690
 H         0.220898         1.062652        -0.677652
 H         0.153799        -0.671565        -1.046329
 H         1.260411        -1.612269         2.245397
