19
Iteration:  3793
 C         3.716580         1.586130         2.751334
 C         3.039205         0.918320         1.610856
 O         3.377122        -0.495275         1.412108
 C         2.525099        -0.354477         0.140736
 C         2.655180         1.282408         0.266400
 C         1.567821         1.138717         1.294929
 C         1.141125        -0.179913         0.791251
 C         0.067266        -0.178684        -0.147320
 O         0.894652        -1.204954         1.793433
 H         3.229720         1.226996         3.705146
 H         4.772609         1.441408         2.663059
 H         3.654716         2.662493         2.594231
 H         2.690576        -1.069771        -0.669757
 H         3.095935         1.992643        -0.396788
 H         0.971609         1.806147         1.858434
 H         0.271599         0.792486        -0.855079
 H        -0.010417        -0.925347        -1.008283
 H        -0.933301        -0.149427         0.241942
 H         1.777899        -1.388111         2.168633
