19
Iteration:  1522charge 0 multiplicity 1
 C         3.845075         1.520927         2.825280
 C         3.111310         0.967184         1.592653
 O         3.383853        -0.515017         1.367787
 C         2.557452        -0.378027         0.192700
 C         2.738870         1.217100         0.204688
 C         1.592419         1.226834         1.241941
 C         1.106099        -0.173438         0.746280
 C        -0.072018        -0.173926        -0.105100
 O         0.756925        -1.184473         1.781767
 H         3.590057         0.837757         3.652120
 H         4.963805         1.644521         2.850849
 H         3.348431         2.431839         3.195147
 H         2.958131        -0.974219        -0.700614
 H         2.981602         2.035787        -0.573735
 H         1.108920         2.141720         1.591422
 H        -0.865803         0.193767         0.550858
 H        -0.020675         0.684327        -0.849964
 H        -0.182700        -1.164385        -0.570429
 H         1.729369        -1.383650         2.160689
