19
Iteration:  3358charge 0 multiplicity 1
 C         3.868800         1.736295         2.804136
 C         3.137250         0.932668         1.676215
 O         3.417138        -0.471744         1.415722
 C         2.606238        -0.310863         0.177607
 C         2.669726         1.257159         0.278391
 C         1.586267         1.096813         1.366350
 C         1.093768        -0.257097         0.668494
 C        -0.094252        -0.158543        -0.244900
 O         0.768311        -1.331772         1.713332
 H         3.332934         1.550653         3.764380
 H         4.927496         1.530581         2.903088
 H         3.726955         2.771974         2.616309
 H         2.929896        -0.980294        -0.605622
 H         2.974954         2.075267        -0.432009
 H         0.914181         1.574045         2.048699
 H        -0.040872         0.848134        -0.879265
 H        -0.360833        -1.161678        -0.709502
 H        -0.917109         0.132426         0.352866
 H         1.550431        -1.312214         2.240949
