19
Iteration:  4672charge 0 multiplicity 1
 C         3.801679         1.591835         2.783878
 C         2.995371         1.016958         1.658894
 O         3.377106        -0.447032         1.468484
 C         2.551955        -0.429115         0.276307
 C         2.683009         1.223952         0.183971
 C         1.603294         1.179714         1.282583
 C         1.157878        -0.248458         0.796092
 C         0.117798        -0.206847        -0.332927
 O         0.730171        -1.177232         1.778849
 H         3.654619         2.666261         2.945076
 H         3.450533         1.060217         3.603958
 H         4.809385         1.304717         2.567966
 H         2.772145        -1.156624        -0.523579
 H         2.941946         1.958134        -0.639189
 H         1.187351         2.100996         1.605472
 H         0.476638         0.518867        -1.189484
 H         0.069336        -1.218890        -0.663893
 H        -0.837131        -0.001249         0.087004
 H         1.239403        -1.042273         2.552512
