19
Iteration:  4838charge 0 multiplicity 1
 C         3.634323         1.517820         2.849465
 C         3.073155         0.868004         1.619869
 O         3.463529        -0.541200         1.336479
 C         2.669865        -0.359524         0.251308
 C         2.794564         1.121681         0.221817
 C         1.637189         1.238429         1.095059
 C         1.057015        -0.139413         0.805875
 C         0.063709        -0.356264        -0.300806
 O         0.625206        -0.881809         1.965189
 H         4.001880         0.768884         3.569013
 H         4.527368         2.053518         2.550154
 H         2.959090         2.091170         3.404209
 H         2.907501        -0.950990        -0.644342
 H         3.163979         1.848447        -0.483375
 H         1.215283         2.190113         1.580783
 H         0.490062         0.208009        -1.057725
 H         0.100934        -1.409081        -0.623713
 H        -0.980899        -0.165438        -0.130137
 H         1.448933        -0.811307         2.584117
