19
Iteration:  3195charge 0 multiplicity 1
 C         4.022082         1.823990         2.506917
 C         3.103021         1.022514         1.739305
 O         3.313142        -0.462058         1.578360
 C         2.609281        -0.316777         0.219489
 C         2.578472         1.168506         0.351209
 C         1.575194         1.040790         1.529211
 C         1.154883        -0.324613         0.776247
 C         0.041219        -0.059719        -0.238884
 O         0.621625        -1.412513         1.523771
 H         3.953478         1.632310         3.645266
 H         5.049304         1.658346         2.185524
 H         3.827234         2.873485         2.361348
 H         2.899213        -0.957577        -0.610842
 H         2.940619         1.989729        -0.322987
 H         1.070357         1.783213         2.076487
 H         0.404600         1.014892        -0.634846
 H        -0.314157        -0.892449        -0.912526
 H        -0.753711         0.322236         0.281946
 H         1.362162        -1.961632         1.784640
