19
Iteration:  4155charge 0 multiplicity 1
 C         3.647402         1.542551         2.824951
 C         3.059219         0.991347         1.621604
 O         3.447361        -0.407531         1.391406
 C         2.633053        -0.358698         0.185244
 C         2.640298         1.213735         0.224503
 C         1.554712         1.141611         1.238445
 C         1.189299        -0.225915         0.803128
 C        -0.042997        -0.119744        -0.194100
 O         0.920077        -1.204495         1.757416
 H         3.650840         0.628723         3.533784
 H         4.716775         2.018433         2.850663
 H         2.760591         2.090192         3.221044
 H         2.757175        -1.141273        -0.592074
 H         2.927912         1.926597        -0.545364
 H         0.775301         1.776249         1.730762
 H        -0.071959         0.805151        -0.800619
 H         0.031244        -1.150596        -0.638845
 H        -0.959648        -0.207737         0.441065
 H         1.787058        -1.427237         2.054004
