19
Iteration:  4043
 C         3.882513         1.690548         2.666684
 C         3.058848         0.962606         1.680181
 O         3.507486        -0.327196         1.392069
 C         2.602254        -0.321914         0.242484
 C         2.468032         1.242197         0.333986
 C         1.521346         0.997213         1.596238
 C         1.111724        -0.271368         0.826462
 C         0.119625        -0.097599        -0.315421
 O         0.692591        -1.390603         1.596792
 H         3.741984         1.660625         3.842580
 H         4.973715         1.419888         2.535563
 H         3.993948         2.766007         2.318009
 H         2.890992        -0.937269        -0.601019
 H         2.716120         2.098406        -0.354996
 H         0.970387         1.903061         1.861528
 H         0.383678         0.453839        -1.322895
 H        -0.071084        -1.142137        -0.649916
 H        -0.888616         0.067926        -0.109376
 H         1.327469        -1.493008         2.379427
