19
Iteration:  2511charge 0 multiplicity 1
 C         4.092078         1.828993         2.527252
 C         3.096788         0.907980         1.759046
 O         3.434104        -0.498096         1.440456
 C         2.510741        -0.304676         0.285098
 C         2.509203         1.206412         0.480693
 C         1.562405         1.135540         1.555301
 C         1.036205        -0.368643         0.804990
 C         0.186655        -0.060988        -0.381921
 O         0.601378        -1.423003         1.578021
 H         4.616285         1.362407         3.355917
 H         4.805828         2.341783         1.905827
 H         3.444553         2.680081         2.782313
 H         2.866337        -0.647284        -0.752189
 H         2.668262         2.044275        -0.258750
 H         0.850003         1.901609         2.009501
 H         0.440433         0.898640        -0.713367
 H         0.230213        -0.860230        -1.156493
 H        -0.943257        -0.022490        -0.178145
 H         0.935072        -1.377638         2.436058
