19
Iteration:  3196
 C         4.018485         1.823289         2.500217
 C         3.091403         1.020846         1.747155
 O         3.319000        -0.467364         1.577335
 C         2.603997        -0.311450         0.219047
 C         2.580466         1.175425         0.345976
 C         1.575651         1.043058         1.530378
 C         1.150048        -0.331436         0.781410
 C         0.049031        -0.053713        -0.240009
 O         0.619149        -1.413238         1.524892
 H         3.979332         1.610092         3.662212
 H         5.059439         1.663830         2.189581
 H         3.820899         2.870163         2.353357
 H         2.933805        -0.941114        -0.604083
 H         2.974341         2.000917        -0.371178
 H         1.077516         1.777660         2.066751
 H         0.426409         0.987032        -0.672049
 H        -0.297477        -0.894837        -0.917768
 H        -0.797937         0.339569         0.323196
 H         1.388631        -1.990003         1.814383
