19
Iteration:  3593
 C         3.998967         1.722492         2.757993
 C         3.033115         0.949080         1.665441
 O         3.351445        -0.458895         1.401330
 C         2.559111        -0.289448         0.176588
 C         2.555372         1.239142         0.314025
 C         1.532572         1.085815         1.437337
 C         1.104008        -0.281948         0.808852
 C         0.087158        -0.133585        -0.355039
 O         0.808680        -1.356911         1.748783
 H         3.464973         1.979623         3.600622
 H         4.858653         1.098958         2.972460
 H         4.263368         2.612376         2.228555
 H         2.651056        -0.842740        -0.744291
 H         2.567411         2.023956        -0.411078
 H         0.793352         1.734953         1.979646
 H         0.415995         0.596174        -1.019054
 H        -0.061084        -1.084663        -0.838578
 H        -0.986609         0.339940        -0.172629
 H         1.443013        -1.176369         2.429724
