19
Iteration:  2658
 C         3.743805         1.395350         2.860266
 C         3.065436         0.955914         1.639411
 O         3.324629        -0.446141         1.356750
 C         2.564672        -0.309842         0.192346
 C         2.658369         1.266288         0.197722
 C         1.632733         1.204093         1.292603
 C         1.128225        -0.100861         0.798760
 C        -0.035783        -0.343486        -0.164642
 O         0.933006        -1.090530         1.724208
 H         3.448113         0.716138         3.644879
 H         4.795420         1.315598         2.489306
 H         3.758352         2.423219         3.184762
 H         2.709909        -1.029533        -0.562199
 H         2.843014         2.201842        -0.403755
 H         1.086886         2.082713         1.823999
 H         0.065119         0.456772        -1.087022
 H        -0.096041        -1.275372        -0.728221
 H        -0.995275        -0.187961         0.264528
 H         1.591499        -1.181757         2.362539
