19
Iteration:   700charge 0 multiplicity 1
 C         4.099192         1.641138         2.581196
 C         3.020919         0.972920         1.699195
 O         3.367464        -0.437520         1.522531
 C         2.524399        -0.375990         0.297104
 C         2.624220         1.188153         0.272381
 C         1.540623         1.169445         1.384044
 C         1.089197        -0.190781         0.865368
 C         0.013103        -0.066177        -0.219573
 O         0.740248        -1.371832         1.560102
 H         4.013216         1.116793         3.603992
 H         5.047743         1.499712         2.117872
 H         3.833292         2.701463         2.619276
 H         2.692335        -1.260196        -0.333586
 H         2.823005         2.018347        -0.423688
 H         0.853267         2.014513         1.596872
 H        -1.050284        -0.154328         0.222330
 H         0.225258         0.960162        -0.704218
 H        -0.000689        -0.898801        -0.926540
 H         1.312223        -1.379900         2.436250
