19
Iteration:  4081
 C         4.065669         1.797226         2.545222
 C         3.057612         0.901862         1.771051
 O         3.376867        -0.393204         1.483975
 C         2.573202        -0.259514         0.259387
 C         2.476542         1.269714         0.422427
 C         1.456107         1.067603         1.510049
 C         1.116718        -0.276588         0.815148
 C         0.162987        -0.128512        -0.374133
 O         0.680265        -1.479407         1.589245
 H         4.361201         1.348855         3.417585
 H         4.901861         1.835984         1.863572
 H         3.492726         2.658295         2.820812
 H         3.095521        -0.739542        -0.604778
 H         2.786464         2.111813        -0.138399
 H         0.647809         1.822076         1.746661
 H         0.552674         0.606847        -0.919340
 H         0.191259        -1.129708        -0.774401
 H        -0.851885         0.291831        -0.055296
 H         1.408177        -1.578746         2.174164
