19
Iteration:   564charge 0 multiplicity 1
 C         3.949298         1.603366         2.650147
 C         3.042816         0.924271         1.712666
 O         3.293147        -0.527676         1.460889
 C         2.524219        -0.293140         0.176727
 C         2.785085         1.217681         0.235632
 C         1.580625         1.141448         1.428303
 C         1.089055        -0.240159         0.739066
 C        -0.063550        -0.142761        -0.202189
 O         0.802238        -1.227168         1.728731
 H         3.936067         1.434847         3.677603
 H         5.069061         1.652874         2.389561
 H         3.513652         2.673163         2.430884
 H         2.973588        -0.984977        -0.529685
 H         2.789589         2.052409        -0.487844
 H         1.016278         2.113830         1.953494
 H        -0.979718         0.284558         0.281342
 H         0.281908         0.567654        -0.970272
 H        -0.306221        -1.164509        -0.687595
 H         1.699767        -1.352005         2.113482
