19
Iteration:  4981charge 0 multiplicity 1
 C         3.946946         1.817783         2.614626
 C         3.153601         0.935214         1.645445
 O         3.482061        -0.444037         1.562666
 C         2.552858        -0.398530         0.311989
 C         2.605203         1.144383         0.261512
 C         1.630417         1.085388         1.433098
 C         1.091448        -0.342852         0.856561
 C         0.261566        -0.139752        -0.401444
 O         0.386414        -1.224209         1.684883
 H         3.179350         2.375026         3.241556
 H         4.599837         1.174715         3.299584
 H         4.577960         2.609738         2.118546
 H         3.002816        -1.107030        -0.426406
 H         2.341283         1.837657        -0.545262
 H         0.971076         1.885249         1.645050
 H         0.421327         0.822539        -0.717808
 H         0.418836        -0.758384        -1.367082
 H        -0.857268        -0.032095        -0.203690
 H         0.954740        -1.604489         2.428192
