19
Iteration:   870charge 0 multiplicity 1
 C         3.766374         1.534536         2.770209
 C         3.121057         0.881171         1.653713
 O         3.446748        -0.531076         1.347630
 C         2.543304        -0.360753         0.157882
 C         2.740563         1.283205         0.301244
 C         1.693724         1.217891         1.268693
 C         1.080599        -0.161850         0.755042
 C        -0.125455        -0.232635        -0.248405
 O         0.757002        -1.079985         1.896115
 H         3.604538         1.242713         3.793163
 H         4.869838         1.440438         2.605764
 H         3.363075         2.468594         2.561398
 H         2.749375        -1.173836        -0.648902
 H         3.056315         1.945027        -0.538022
 H         1.227537         1.890928         1.929787
 H        -1.017225        -0.241840         0.269647
 H        -0.177016         0.743006        -0.763455
 H         0.100016        -1.096378        -0.953895
 H         1.538610        -1.637573         2.033159
