19
Iteration:  3845
 C         3.950873         1.849382         2.563132
 C         3.069006         0.976519         1.729191
 O         3.388562        -0.454970         1.485562
 C         2.624337        -0.324512         0.307192
 C         2.665905         1.222413         0.348750
 C         1.561060         1.088233         1.425590
 C         1.150205        -0.301352         0.731618
 C         0.005383        -0.075285        -0.154443
 O         0.647917        -1.485333         1.521725
 H         3.556060         1.749250         3.663337
 H         5.055478         1.656069         2.569812
 H         3.705233         2.928191         2.470547
 H         3.052805        -1.002609        -0.460441
 H         2.909657         1.982582        -0.424897
 H         0.916725         1.872831         1.662193
 H         0.100522         0.828393        -0.814289
 H        -0.305712        -0.939878        -0.771129
 H        -0.771225         0.243974         0.522188
 H         1.288797        -1.774557         2.137445
