19
Iteration:  2180
 C         3.766017         1.403452         2.870380
 C         3.063767         0.913807         1.663132
 O         3.291707        -0.479025         1.342596
 C         2.546811        -0.264344         0.139856
 C         2.831772         1.337920         0.252298
 C         1.586102         1.243022         1.189013
 C         1.125066        -0.124235         0.782004
 C        -0.129423        -0.414772        -0.130142
 O         0.921802        -1.064789         1.764095
 H         3.192238         1.213769         3.810848
 H         4.779536         0.935243         2.937236
 H         3.917981         2.430776         2.726502
 H         2.689923        -1.068885        -0.633079
 H         3.160447         2.181257        -0.330235
 H         1.098080         2.113441         1.797121
 H        -0.137170         0.334029        -0.975026
 H         0.066091        -1.336411        -0.725388
 H        -1.101694        -0.270985         0.365211
 H         1.852887        -1.223611         2.202075
