19
Iteration:   279
 C         4.128991         1.705357         2.548437
 C         3.056666         1.003406         1.754479
 O         3.360810        -0.425119         1.539567
 C         2.528828        -0.380338         0.276348
 C         2.577427         1.144144         0.239274
 C         1.540101         1.072797         1.389554
 C         1.086368        -0.263342         0.801186
 C         0.034779         0.011031        -0.155599
 O         0.653303        -1.372578         1.573236
 H         4.398457         1.166879         3.532002
 H         5.171181         1.819490         2.027357
 H         3.808250         2.798204         2.770325
 H         2.967204        -1.090906        -0.490059
 H         2.762889         1.959937        -0.505771
 H         0.921682         1.814721         1.677161
 H        -0.797724        -0.526188         0.175487
 H        -0.274471         1.043242        -0.267560
 H         0.301403        -0.502957        -1.088869
 H         1.481617        -1.505649         2.209832
