19
Iteration:  1524charge 0 multiplicity 1
 C         3.849189         1.507804         2.820468
 C         3.116855         0.949592         1.586469
 O         3.388235        -0.497396         1.370676
 C         2.564539        -0.371745         0.189471
 C         2.722600         1.216280         0.187769
 C         1.599356         1.202835         1.258563
 C         1.111732        -0.184131         0.761691
 C        -0.069105        -0.164087        -0.104986
 O         0.753368        -1.176829         1.778891
 H         3.569205         0.791838         3.655360
 H         4.930302         1.715956         2.846852
 H         3.309613         2.497108         3.189650
 H         2.978258        -0.956497        -0.622870
 H         2.959917         2.036317        -0.519500
 H         1.073666         2.193683         1.582254
 H        -0.824326         0.210258         0.523356
 H         0.026098         0.698413        -0.945777
 H        -0.300905        -1.195368        -0.599905
 H         1.686041        -1.348221         2.184771
