19
Iteration:  1642
 C         4.002511         1.686123         2.572277
 C         3.024469         0.971957         1.735426
 O         3.346741        -0.446797         1.455338
 C         2.532948        -0.333087         0.219079
 C         2.614070         1.253435         0.345134
 C         1.565663         1.084641         1.500810
 C         1.100081        -0.303141         0.808996
 C         0.013616         0.056151        -0.219381
 O         0.764116        -1.443901         1.587415
 H         3.828172         1.437039         3.599733
 H         4.935366         1.302065         2.187221
 H         4.077044         2.776364         2.436997
 H         2.956329        -0.929049        -0.578874
 H         2.967034         1.986595        -0.303507
 H         0.720911         1.878529         1.819161
 H         0.386642         0.872089        -0.925933
 H        -0.146911        -0.918791        -0.751601
 H        -0.940033         0.270162         0.312642
 H         1.609556        -1.687967         2.061146
