19
Iteration:   457
 C         3.915138         1.700138         2.623031
 C         3.145843         0.911216         1.610407
 O         3.386270        -0.555717         1.416885
 C         2.552722        -0.334235         0.223029
 C         2.712770         1.240579         0.307830
 C         1.615376         1.133799         1.433857
 C         1.083008        -0.189181         0.825892
 C        -0.048428        -0.141920        -0.263723
 O         0.665501        -1.287712         1.758081
 H         3.852710         1.293904         3.625320
 H         4.892522         1.743732         2.105174
 H         3.630204         2.757063         2.716472
 H         2.830373        -1.017434        -0.567861
 H         3.125325         1.977639        -0.357040
 H         1.087501         2.055754         1.889494
 H        -1.058145        -0.260954         0.185015
 H        -0.094809         0.902095        -0.605016
 H         0.204523        -0.705117        -1.142239
 H         1.395249        -1.369770         2.316279
