19
Iteration:   242charge 0 multiplicity 1
 C         3.930616         1.745823         2.625042
 C         3.097611         0.833981         1.643228
 O         3.435453        -0.510872         1.366932
 C         2.490684        -0.324602         0.156272
 C         2.699223         1.197219         0.284083
 C         1.598560         1.068982         1.426949
 C         1.010190        -0.226857         0.886076
 C         0.056626        -0.033611        -0.230248
 O         0.661368        -1.283348         1.779970
 H         3.813567         1.624468         3.698241
 H         5.101031         1.689915         2.284302
 H         3.475607         2.704265         2.439624
 H         2.714388        -1.081973        -0.596145
 H         3.060225         2.010745        -0.308580
 H         1.084848         1.871238         2.150695
 H        -0.547057        -1.033643        -0.260884
 H        -0.554254         0.938841        -0.344637
 H         0.589017         0.011260        -1.193143
 H         1.520221        -1.430776         2.371269
