19
Iteration:  2701
 C         3.959743         1.732568         2.674824
 C         3.023510         0.877297         1.769713
 O         3.429205        -0.506473         1.346536
 C         2.557776        -0.362768         0.237265
 C         2.626741         1.278456         0.371515
 C         1.602398         1.074813         1.410628
 C         1.091239        -0.315550         0.780842
 C         0.018121        -0.063034        -0.314717
 O         0.670931        -1.276512         1.729013
 H         4.226043         1.313005         3.646655
 H         4.833313         2.083908         2.049242
 H         3.502821         2.715711         2.777499
 H         2.927359        -0.963569        -0.575359
 H         2.903385         2.106621        -0.353826
 H         0.985249         1.957168         1.884384
 H         0.398881         0.719306        -1.123183
 H        -0.157810        -1.054934        -0.766129
 H        -0.942767         0.204096         0.064827
 H         1.575975        -1.488775         2.116857
