19
Iteration:  4816
 C         3.794607         1.652456         2.825572
 C         3.099621         0.888306         1.637509
 O         3.321347        -0.558141         1.489821
 C         2.532514        -0.401189         0.184556
 C         2.891911         1.180518         0.220665
 C         1.606359         1.159844         1.263736
 C         1.131681        -0.149527         0.684487
 C         0.032045        -0.342392        -0.328731
 O         0.684813        -0.974811         1.843860
 H         4.000402         1.070760         3.728067
 H         4.694158         2.143820         2.507653
 H         3.071858         2.342616         3.146335
 H         2.599988        -1.190780        -0.572255
 H         3.262432         1.978079        -0.369270
 H         0.950057         2.052534         1.533088
 H         0.162193         0.326050        -1.140818
 H         0.038592        -1.401387        -0.634610
 H        -0.878356        -0.192142         0.223956
 H         1.349851        -0.720283         2.471595
