19
Iteration:  2508charge 0 multiplicity 1
 C         4.060287         1.854091         2.554156
 C         3.114215         0.916308         1.721017
 O         3.436295        -0.537907         1.417076
 C         2.516952        -0.301333         0.306875
 C         2.497955         1.223568         0.479082
 C         1.571119         1.137518         1.558717
 C         1.050274        -0.367179         0.827218
 C         0.172351        -0.073704        -0.379283
 O         0.595142        -1.417606         1.565740
 H         4.600051         1.290686         3.325539
 H         4.920579         2.260581         1.853464
 H         3.409397         2.782669         2.858216
 H         2.803428        -0.716482        -0.645341
 H         2.687613         1.974958        -0.199068
 H         0.822211         1.854341         2.071606
 H         0.376408         1.013195        -0.847338
 H         0.300789        -0.871004        -1.165048
 H        -0.854035        -0.005746        -0.205051
 H         1.041675        -1.247868         2.504986
