19
Iteration:  1308charge 0 multiplicity 1
 C         3.794736         1.419111         2.850360
 C         3.123064         0.933868         1.600999
 O         3.405154        -0.451382         1.295673
 C         2.570363        -0.335247         0.103029
 C         2.656987         1.246028         0.159688
 C         1.650858         1.131667         1.299373
 C         1.112504        -0.213673         0.818699
 C        -0.038407        -0.231042        -0.153916
 O         0.787751        -1.013169         1.859455
 H         3.305410         0.938406         3.727714
 H         4.838824         1.212582         2.891345
 H         3.581070         2.548033         2.907825
 H         2.704509        -1.072977        -0.645537
 H         2.973366         2.116704        -0.404869
 H         0.991871         1.823292         1.828083
 H        -0.852851         0.506216         0.203103
 H         0.230214         0.244655        -1.156602
 H        -0.468484        -1.311373        -0.269986
 H         1.588206        -1.237509         2.377613
