19
Iteration:  1566
 C         3.887029         1.663614         2.673932
 C         3.164335         0.884658         1.671231
 O         3.460777        -0.526074         1.272603
 C         2.556910        -0.318820         0.196513
 C         2.563986         1.211504         0.348442
 C         1.557094         1.086202         1.428633
 C         1.079409        -0.293481         0.892680
 C         0.077206        -0.041387        -0.297582
 O         0.681847        -1.224548         1.773671
 H         3.964136         1.183698         3.649326
 H         4.909367         1.877846         2.391551
 H         3.209411         2.532744         2.846957
 H         2.614775        -1.035607        -0.638435
 H         2.930634         2.071166        -0.243864
 H         0.848441         1.955173         1.696414
 H        -0.299838         0.936383        -0.139372
 H         0.606156         0.104827        -1.296687
 H        -0.683533        -0.826895        -0.368288
 H         1.401706        -1.369073         2.481352
