19
Iteration:  2372charge 0 multiplicity 1
 C         3.772337         1.500320         2.807634
 C         3.147500         0.866911         1.618419
 O         3.458750        -0.444651         1.323893
 C         2.650277        -0.319178         0.160317
 C         2.605241         1.374286         0.289803
 C         1.550787         1.086585         1.317108
 C         1.106314        -0.203702         0.767473
 C        -0.041402        -0.243558        -0.243979
 O         0.776851        -1.086097         1.815227
 H         3.446210         0.861245         3.706972
 H         4.874635         1.308698         2.815687
 H         3.733367         2.583821         2.865621
 H         2.863062        -0.879030        -0.805701
 H         2.999941         1.952469        -0.526789
 H         0.915667         1.724194         1.997076
 H         0.107297         0.418895        -1.014432
 H        -0.116560        -1.306213        -0.557291
 H        -1.114672        -0.114467         0.236960
 H         1.447454        -1.052946         2.535425
