19
Iteration:  3301charge 0 multiplicity 1
 C         3.727299         1.449429         2.884038
 C         3.109591         0.938837         1.643882
 O         3.335307        -0.439901         1.364285
 C         2.581818        -0.291253         0.112157
 C         2.714567         1.269240         0.215541
 C         1.634795         1.176689         1.279581
 C         1.080514        -0.201653         0.748734
 C        -0.077420        -0.313456        -0.224099
 O         0.927538        -1.099558         1.845318
 H         3.381982         0.789764         3.679570
 H         4.840328         1.457329         2.827710
 H         3.373748         2.472268         3.108708
 H         2.903820        -0.956636        -0.704572
 H         2.757170         2.181241        -0.435219
 H         1.015097         1.965347         1.615734
 H         0.109250         0.563355        -0.946492
 H        -0.080492        -1.140255        -0.942693
 H        -1.088465        -0.266954         0.309854
 H         1.748527        -1.027363         2.300633
