19
Iteration:  3480charge 0 multiplicity 1
 C         3.837093         1.675416         2.856604
 C         3.086764         0.972077         1.662807
 O         3.323414        -0.451696         1.363436
 C         2.614212        -0.332981         0.206947
 C         2.694354         1.284625         0.217513
 C         1.623274         1.044832         1.316699
 C         1.068650        -0.275421         0.753717
 C        -0.043694        -0.152568        -0.257742
 O         0.820406        -1.259513         1.791398
 H         4.103148         0.938091         3.588124
 H         4.832224         2.012571         2.649458
 H         3.231613         2.520689         3.155180
 H         2.903381        -1.017529        -0.634380
 H         2.720039         1.999143        -0.588183
 H         0.942795         1.798410         1.763789
 H         0.108952         0.892072        -0.760935
 H        -0.004529        -1.014051        -0.981766
 H        -1.016729        -0.060332         0.244184
 H         1.724711        -1.546691         2.094737
