19
Iteration:  3040charge 0 multiplicity 1
 C         3.820752         1.589316         2.768201
 C         3.060809         0.853823         1.652788
 O         3.390246        -0.477687         1.344866
 C         2.603518        -0.269561         0.186590
 C         2.703622         1.260307         0.300410
 C         1.554141         1.185048         1.269422
 C         1.110815        -0.267850         0.789888
 C        -0.052966        -0.115573        -0.195277
 O         0.807373        -1.267843         1.805401
 H         3.915155         0.963985         3.657799
 H         4.855438         1.822425         2.404599
 H         3.142864         2.478714         2.965527
 H         2.844285        -0.873586        -0.720669
 H         3.055708         2.117204        -0.339703
 H         1.053109         2.057374         1.772887
 H         0.240427         0.465720        -1.180768
 H        -0.265341        -1.047606        -0.727234
 H        -0.870632         0.214815         0.306947
 H         1.673449        -1.364639         2.278875
