19
Iteration:  4525charge 0 multiplicity 1
 C         4.061428         1.859621         2.639578
 C         3.100643         0.919216         1.796309
 O         3.381427        -0.495388         1.616314
 C         2.554018        -0.293484         0.225692
 C         2.653517         1.199150         0.361086
 C         1.471483         1.064327         1.464423
 C         1.114647        -0.235084         0.754728
 C        -0.014280        -0.192418        -0.410854
 O         0.693799        -1.333064         1.571280
 H         5.024007         1.314720         2.647227
 H         4.228959         2.673380         1.825477
 H         3.550714         2.206339         3.585756
 H         3.072749        -0.810503        -0.580346
 H         2.753129         1.948638        -0.505297
 H         0.851919         1.910901         1.668904
 H         0.139461         0.486457        -1.174822
 H        -0.078205        -1.278561        -0.806741
 H        -0.941667         0.116735         0.170079
 H         1.308837        -1.440066         2.293180
