19
Iteration:  3811
 C         3.787186         1.750186         2.696945
 C         3.067258         0.903292         1.694053
 O         3.383622        -0.509651         1.447697
 C         2.577900        -0.327357         0.252478
 C         2.666285         1.166799         0.262318
 C         1.595509         1.121344         1.398277
 C         1.143887        -0.214866         0.756916
 C        -0.077187        -0.053749        -0.216116
 O         0.872150        -1.324574         1.659920
 H         3.216895         1.489264         3.579836
 H         4.882355         1.459617         2.768805
 H         3.699019         2.770156         2.302339
 H         3.001124        -1.049953        -0.473989
 H         2.851830         1.978529        -0.534863
 H         1.058788         1.989133         1.752963
 H        -0.122761         0.795569        -0.804453
 H        -0.167836        -0.902405        -0.869372
 H        -0.968978        -0.170620         0.449551
 H         1.745857        -1.429391         2.056378
