19
Iteration:  4396
 C         3.768291         1.537870         2.805800
 C         3.035475         0.941228         1.725003
 O         3.367960        -0.449426         1.390052
 C         2.599439        -0.232011         0.143294
 C         2.674114         1.268596         0.328634
 C         1.565716         1.158342         1.368867
 C         1.113829        -0.197773         0.753029
 C        -0.026050        -0.469232        -0.296740
 O         0.882714        -1.053069         1.706679
 H         3.597881         1.091948         3.722449
 H         4.859602         1.398778         2.634767
 H         3.719106         2.615930         2.938309
 H         2.770925        -0.837712        -0.748455
 H         2.944396         2.090472        -0.345967
 H         1.031496         2.010759         1.664568
 H         0.273888        -0.117382        -1.236573
 H        -0.250129        -1.596847        -0.356062
 H        -1.056025        -0.017607         0.052521
 H         1.743827        -0.938971         2.276809
