19
Iteration:  2986
 C         4.007601         1.826915         2.549534
 C         3.066463         0.945445         1.755818
 O         3.544819        -0.426857         1.434616
 C         2.534057        -0.315994         0.246713
 C         2.648121         1.218130         0.378698
 C         1.555159         1.095124         1.504767
 C         1.051643        -0.340438         0.849647
 C         0.012312        -0.016297        -0.258302
 O         0.539980        -1.480766         1.611024
 H         3.781848         1.603779         3.610853
 H         5.043124         1.419831         2.347392
 H         4.199479         2.954513         2.319836
 H         2.717806        -0.974944        -0.649325
 H         3.005562         2.061937        -0.324171
 H         0.878088         1.892965         1.847567
 H         0.357926         1.055606        -0.735166
 H         0.174608        -0.749670        -1.103779
 H        -1.004125        -0.060304        -0.139809
 H         1.391285        -1.909931         1.868817
