19
Iteration:   873charge 0 multiplicity 1
 C         3.765623         1.527569         2.741927
 C         3.137948         0.877852         1.661470
 O         3.464478        -0.514900         1.357335
 C         2.547056        -0.377609         0.145051
 C         2.707595         1.279937         0.283619
 C         1.696918         1.229981         1.275138
 C         1.087311        -0.191874         0.761628
 C        -0.093145        -0.215070        -0.240455
 O         0.723683        -1.092521         1.898349
 H         3.477031         1.205175         3.808951
 H         4.815317         1.494519         2.567833
 H         3.400686         2.565497         2.562347
 H         2.791986        -1.202363        -0.684812
 H         3.072149         1.936584        -0.460528
 H         1.175846         1.983607         2.045137
 H        -1.101901        -0.199879         0.343602
 H        -0.087295         0.792456        -0.844040
 H         0.085694        -0.938080        -0.927959
 H         1.585783        -1.747431         2.046057
