19
Iteration:  1996charge 0 multiplicity 1
 C         3.754792         1.633398         2.816896
 C         3.103687         0.916669         1.688252
 O         3.347890        -0.553540         1.268976
 C         2.565793        -0.282447         0.104846
 C         2.749798         1.245185         0.300061
 C         1.613034         1.138180         1.369464
 C         1.096707        -0.196103         0.821319
 C        -0.072429        -0.163069        -0.178469
 O         0.852368        -1.212319         1.768584
 H         3.513612         1.300123         3.815089
 H         4.872496         1.472080         2.747481
 H         3.695303         2.679927         2.644547
 H         2.648738        -0.925332        -0.833166
 H         3.061480         2.026378        -0.435526
 H         1.046945         2.098763         1.748201
 H        -0.150376         0.760182        -0.776410
 H        -0.034311        -1.091624        -0.802796
 H        -0.946235        -0.147946         0.356932
 H         1.767531        -1.686350         1.951390
