19
Iteration:  4686charge 0 multiplicity 1
 C         3.810532         1.651871         2.696703
 C         3.135937         0.911967         1.600447
 O         3.377133        -0.405419         1.479475
 C         2.599933        -0.418305         0.254381
 C         2.641593         1.189614         0.238996
 C         1.600138         1.060308         1.381948
 C         1.122485        -0.207429         0.823290
 C         0.193764        -0.197939        -0.341591
 O         0.603168        -1.126044         1.750069
 H         3.311335         2.605642         2.900517
 H         3.876470         1.086553         3.619184
 H         4.827728         1.871319         2.540146
 H         2.944613        -1.233403        -0.376877
 H         2.680673         2.061762        -0.416007
 H         0.808851         1.652696         1.868321
 H         0.471486         0.468750        -1.196028
 H         0.112762        -1.240910        -0.842094
 H        -0.793034         0.182667        -0.064812
 H         1.234350        -1.094155         2.531814
