19
Iteration:   659
 C         3.828651         1.540313         2.745181
 C         3.040448         0.835460         1.675109
 O         3.385544        -0.551198         1.335185
 C         2.572204        -0.291829         0.121253
 C         2.715980         1.264441         0.223857
 C         1.602789         1.151708         1.341201
 C         1.062140        -0.175842         0.807800
 C        -0.052352        -0.217083        -0.177281
 O         0.828409        -1.084263         1.830436
 H         3.807173         1.128501         3.771406
 H         4.917179         1.514057         2.610308
 H         3.441875         2.640396         2.791386
 H         2.744762        -0.852253        -0.741441
 H         3.116466         2.118282        -0.348613
 H         1.043016         2.098917         1.807882
 H        -1.088932        -0.143063         0.279675
 H        -0.049919         0.565227        -0.950034
 H         0.119923        -1.242079        -0.786844
 H         1.701023        -1.211389         2.156708
