19
Iteration:  3801
 C         3.715039         1.626831         2.672591
 C         3.090846         0.897848         1.608091
 O         3.371129        -0.499338         1.439960
 C         2.574925        -0.358102         0.225156
 C         2.668323         1.214449         0.262930
 C         1.527277         1.158212         1.366830
 C         1.140911        -0.253093         0.825978
 C        -0.000233        -0.121834        -0.216114
 O         0.916093        -1.205673         1.691802
 H         3.335394         1.561876         3.698237
 H         4.796366         1.396818         2.854898
 H         3.579905         2.685824         2.625766
 H         2.698562        -1.023040        -0.655092
 H         2.964571         2.125440        -0.391073
 H         0.989943         1.932119         1.859175
 H         0.029248         0.877029        -0.623092
 H        -0.010775        -0.997802        -0.879406
 H        -0.886921        -0.057608         0.451132
 H         1.722108        -1.460991         2.087949
