19
Iteration:  3526
 C         3.686275         1.532293         2.930068
 C         3.095628         0.941969         1.617849
 O         3.439134        -0.487990         1.334226
 C         2.564669        -0.286467         0.098250
 C         2.744098         1.261281         0.245944
 C         1.606160         1.150442         1.255081
 C         1.097584        -0.210971         0.734704
 C        -0.159765        -0.264431        -0.191719
 O         0.947988        -1.137436         1.795528
 H         3.135467         1.251048         3.754604
 H         4.681162         1.303313         3.192168
 H         3.623283         2.618126         2.767177
 H         2.888647        -1.056596        -0.654046
 H         3.017050         2.230981        -0.321058
 H         1.039300         1.866855         1.787049
 H        -0.198327         0.459747        -0.941204
 H        -0.233228        -1.270075        -0.581470
 H        -1.138837        -0.024502         0.421868
 H         1.800481        -1.123553         2.294052
