19
Iteration:  3367charge 0 multiplicity 1
 C         3.872943         1.748547         2.715928
 C         3.125870         0.986017         1.668068
 O         3.369406        -0.459098         1.415358
 C         2.605728        -0.290168         0.135674
 C         2.690493         1.236768         0.309908
 C         1.532031         1.018111         1.415336
 C         1.178254        -0.262459         0.799507
 C        -0.011534        -0.124844        -0.201640
 O         0.689719        -1.365018         1.669561
 H         3.508365         1.455177         3.721894
 H         4.944235         1.494161         2.879789
 H         3.754352         2.806070         2.474864
 H         3.071139        -0.781559        -0.714622
 H         2.786829         2.115477        -0.479611
 H         0.873897         1.651544         1.931208
 H         0.327057         0.539265        -1.065966
 H        -0.229639        -1.004075        -0.826458
 H        -0.864274         0.278598         0.373916
 H         1.369946        -1.383927         2.317375
