19
Iteration:  2356charge 0 multiplicity 1
 C         3.878225         1.523228         2.770301
 C         3.071549         0.962861         1.678609
 O         3.469055        -0.411366         1.295732
 C         2.502036        -0.315672         0.185082
 C         2.663346         1.250989         0.234621
 C         1.553275         1.111128         1.373272
 C         1.160926        -0.229827         0.822045
 C         0.085934        -0.228305        -0.255623
 O         0.654417        -1.182556         1.806119
 H         3.679150         0.943978         3.631412
 H         4.928840         1.547468         2.492708
 H         3.480095         2.518429         3.028922
 H         2.811243        -1.024062        -0.545670
 H         2.757761         2.218950        -0.326778
 H         0.980402         1.912120         1.825048
 H         0.301260         0.678347        -0.980581
 H        -0.065248        -1.118751        -0.874815
 H        -0.842910        -0.087764         0.199074
 H         1.425256        -1.241039         2.305092
