19
Iteration:  2589
 C         3.728296         1.635147         2.812127
 C         3.123568         0.859849         1.658175
 O         3.385269        -0.524392         1.299363
 C         2.569163        -0.275450         0.114092
 C         2.687279         1.285960         0.256277
 C         1.583190         1.149649         1.390969
 C         1.109698        -0.242318         0.794375
 C        -0.035072        -0.140441        -0.186553
 O         0.888983        -1.251987         1.717579
 H         3.149229         1.344181         3.731763
 H         4.779327         1.476226         2.937635
 H         3.619897         2.700299         2.759270
 H         2.616633        -1.110016        -0.658201
 H         3.131823         2.046861        -0.390614
 H         1.123953         1.903400         1.951284
 H         0.236078         0.550737        -0.924468
 H        -0.404214        -1.050211        -0.677745
 H        -0.909021         0.290932         0.464909
 H         1.496287        -1.267853         2.537108
