19
Iteration:  1001
 C         3.912340         1.603370         2.693905
 C         3.100879         0.939356         1.633944
 O         3.395179        -0.468027         1.359511
 C         2.522351        -0.421417         0.260452
 C         2.588977         1.205701         0.236230
 C         1.583687         1.123085         1.374350
 C         1.134458        -0.220793         0.848354
 C         0.071196        -0.040304        -0.241372
 O         0.694168        -1.231858         1.758021
 H         3.812771         1.049799         3.676757
 H         5.070572         1.699566         2.502551
 H         3.560619         2.614586         2.763381
 H         2.958361        -1.207182        -0.501940
 H         2.900011         1.940331        -0.446234
 H         0.904479         2.045095         1.598217
 H        -0.894500         0.354315         0.018210
 H         0.589215         0.556991        -1.084910
 H        -0.205731        -1.094829        -0.563564
 H         1.318435        -1.294522         2.572144
