19
Iteration:  2514
 C         4.108446         1.804277         2.499282
 C         3.092224         0.902412         1.802086
 O         3.429419        -0.459202         1.459602
 C         2.509868        -0.307830         0.258475
 C         2.526697         1.204743         0.459502
 C         1.535932         1.119735         1.560484
 C         1.033924        -0.356969         0.794558
 C         0.181295        -0.059521        -0.382035
 O         0.600417        -1.430428         1.579602
 H         4.609373         1.422365         3.410778
 H         4.753720         2.386376         1.888514
 H         3.476544         2.591383         2.787652
 H         2.895719        -0.631202        -0.743049
 H         2.664583         2.054896        -0.271737
 H         0.953810         1.897736         1.926137
 H         0.534169         0.889476        -0.673772
 H         0.201972        -0.821283        -1.143060
 H        -0.942006        -0.034403        -0.130235
 H         0.923274        -1.483638         2.504488
