19
Iteration:  3569
 C         3.832611         1.553081         2.746272
 C         2.999695         0.901460         1.637965
 O         3.458962        -0.404614         1.385466
 C         2.558164        -0.352983         0.211992
 C         2.613522         1.351703         0.341317
 C         1.545328         1.162566         1.353759
 C         1.100993        -0.195310         0.786688
 C         0.005566        -0.239473        -0.254273
 O         0.859216        -1.254801         1.720653
 H         3.218591         1.699852         3.612138
 H         4.587815         0.822800         2.876255
 H         4.276178         2.542931         2.481204
 H         2.749404        -1.120803        -0.609880
 H         3.016403         2.176252        -0.382956
 H         0.892252         1.883564         1.766045
 H         0.233221         0.307915        -1.124763
 H        -0.230213        -1.277210        -0.446278
 H        -1.003367         0.298825         0.030322
 H         1.716115        -1.217607         2.300886
