19
Iteration:  3249charge 0 multiplicity 1
 C         3.867738         1.666283         2.724501
 C         3.125137         0.957276         1.668408
 O         3.386847        -0.470816         1.372820
 C         2.587843        -0.264170         0.175568
 C         2.607122         1.230253         0.283572
 C         1.613667         1.010555         1.441363
 C         1.116818        -0.191501         0.801511
 C         0.078545        -0.106218        -0.315059
 O         0.655261        -1.307034         1.789012
 H         4.083771         1.043079         3.615968
 H         4.853091         1.882677         2.351813
 H         3.413922         2.609286         2.891899
 H         2.791790        -0.838359        -0.719701
 H         2.635917         2.057368        -0.502897
 H         0.989353         1.628927         2.002526
 H         0.515447         0.270179        -1.354753
 H        -0.074904        -1.167396        -0.650391
 H        -0.777842         0.297360         0.013552
 H         1.344729        -1.233666         2.493221
