19
Iteration:  4367charge 0 multiplicity 1
 C         3.845508         1.588408         2.750973
 C         2.994543         0.998998         1.700945
 O         3.310361        -0.361337         1.408959
 C         2.505797        -0.254756         0.213206
 C         2.681860         1.284183         0.289867
 C         1.515035         1.124589         1.231451
 C         1.143397        -0.294343         0.833522
 C         0.097730        -0.232898        -0.315321
 O         0.869546        -1.313605         1.801064
 H         3.506797         1.598782         3.859500
 H         4.731301         1.002244         2.869916
 H         4.245652         2.636583         2.632915
 H         2.614391        -0.981814        -0.592862
 H         2.980865         2.072562        -0.456848
 H         0.867482         1.882923         1.697034
 H         0.435568         0.404685        -1.137786
 H        -0.196866        -1.165617        -0.721731
 H        -0.875833         0.144601         0.046637
 H         1.816727        -1.626853         2.075838
