19
Iteration:  1926charge 0 multiplicity 1
 C         3.752297         1.409248         2.911910
 C         3.109399         0.935747         1.640365
 O         3.298912        -0.438546         1.243519
 C         2.484953        -0.251136         0.144432
 C         2.740135         1.245892         0.203677
 C         1.598229         1.290662         1.215120
 C         1.147138        -0.196706         0.834117
 C        -0.045697        -0.217335        -0.213849
 O         0.921690        -1.219922         1.905384
 H         3.634596         0.628032         3.677665
 H         4.792122         1.504591         2.753632
 H         3.504759         2.458564         3.287689
 H         2.846912        -0.897344        -0.664369
 H         2.921798         1.994032        -0.501845
 H         0.981661         2.011894         1.609956
 H         0.320296         0.180766        -1.138920
 H        -0.439120        -1.130427        -0.470867
 H        -0.947001         0.440070         0.120108
 H         1.833271        -1.509676         2.198814
