19
Iteration:  4490
 C         3.812957         1.769533         2.625273
 C         3.000204         0.930935         1.712795
 O         3.365307        -0.471249         1.550358
 C         2.555452        -0.288594         0.198454
 C         2.782119         1.188520         0.290204
 C         1.529100         1.135480         1.379121
 C         1.146146        -0.266820         0.821329
 C         0.031698        -0.080463        -0.266775
 O         0.745518        -1.406197         1.650668
 H         4.755787         1.251471         3.113353
 H         4.260449         2.521939         1.894507
 H         3.494621         2.450837         3.411705
 H         2.853424        -1.065760        -0.506872
 H         3.259356         1.867195        -0.397106
 H         0.922890         1.932261         1.755087
 H         0.161674         0.815356        -0.945937
 H         0.082976        -0.973020        -0.917646
 H        -0.929728        -0.087007         0.149520
 H         1.481705        -1.609027         2.194405
