19
Iteration:  1573
 C         3.920977         1.679388         2.654668
 C         3.149132         0.854560         1.690701
 O         3.452031        -0.510047         1.299799
 C         2.497708        -0.320604         0.198145
 C         2.555998         1.250361         0.404385
 C         1.583804         1.073564         1.433380
 C         1.135669        -0.233176         0.874119
 C         0.091892        -0.050305        -0.301485
 O         0.636335        -1.278615         1.761226
 H         3.965625         1.309738         3.674006
 H         4.898338         2.059075         2.223532
 H         3.450544         2.621745         2.719466
 H         2.609212        -1.001450        -0.723320
 H         2.892249         1.970506        -0.401545
 H         1.022652         1.830217         1.793955
 H        -0.461874         1.036786        -0.369521
 H         0.662574        -0.154358        -1.170289
 H        -0.622766        -0.827948        -0.368336
 H         1.359549        -1.543048         2.289453
