19
Iteration:  3000charge 0 multiplicity 1
 C         3.956303         1.747650         2.607345
 C         3.159159         0.913917         1.698564
 O         3.481935        -0.478432         1.406758
 C         2.545761        -0.352451         0.301567
 C         2.535995         1.236302         0.353969
 C         1.591306         1.060752         1.495670
 C         1.047236        -0.247731         0.859741
 C         0.043104        -0.021118        -0.342957
 O         0.663754        -1.384985         1.625386
 H         3.725079         1.747793         3.719705
 H         5.030164         1.630740         2.472423
 H         3.563478         2.739743         2.287529
 H         2.873196        -1.010036        -0.493730
 H         2.663507         1.982823        -0.389904
 H         0.975799         1.944172         1.949244
 H         0.173252         1.000646        -0.750899
 H         0.047634        -0.835826        -1.143698
 H        -0.975015         0.058502         0.213266
 H         1.460175        -1.766073         2.023757
