19
Iteration:  4916
 C         3.909611         1.814472         2.608858
 C         3.019926         0.936025         1.773188
 O         3.172696        -0.575935         1.627365
 C         2.644541        -0.437731         0.288653
 C         2.871234         1.111520         0.259090
 C         1.595333         1.137622         1.312895
 C         1.122892        -0.249065         0.756961
 C        -0.004790        -0.130753        -0.336545
 O         0.717719        -1.148332         1.639681
 H         3.956148         1.554157         3.659071
 H         4.931119         1.905791         2.176815
 H         3.424351         2.788534         2.652550
 H         3.050185        -1.296056        -0.312522
 H         3.271643         1.845022        -0.534471
 H         0.910543         1.888751         1.669542
 H         0.211127         0.517284        -1.051052
 H        -0.281855        -1.191773        -0.635439
 H        -0.756069         0.479025         0.152822
 H         1.536992        -1.357257         2.085190
