19
Iteration:  1933
 C         3.713887         1.342753         2.981319
 C         3.096498         0.959226         1.606411
 O         3.351867        -0.431391         1.271463
 C         2.533409        -0.244171         0.114041
 C         2.718225         1.299678         0.128003
 C         1.594615         1.208851         1.174178
 C         1.146808        -0.179634         0.859819
 C        -0.055592        -0.211252        -0.167640
 O         0.916297        -1.186173         1.914937
 H         3.567440         0.641652         3.815259
 H         4.877160         1.360237         2.821999
 H         3.359234         2.398066         3.181000
 H         2.699555        -0.939336        -0.677485
 H         3.033631         1.940204        -0.725770
 H         0.977811         2.116780         1.582174
 H         0.132783         0.380444        -1.214914
 H        -0.440503        -1.293238        -0.322996
 H        -0.937311         0.452080         0.143044
 H         1.884569        -1.538036         2.146727
