19
Iteration:  3441charge 0 multiplicity 1
 C         3.954529         1.738323         2.543365
 C         3.054162         0.953449         1.785116
 O         3.408948        -0.456074         1.414009
 C         2.593906        -0.286165         0.286885
 C         2.611505         1.264783         0.367751
 C         1.491532         1.068854         1.482360
 C         1.169560        -0.250405         0.836058
 C         0.127594        -0.144226        -0.255834
 O         0.612474        -1.369401         1.541377
 H         4.427603         1.109543         3.362360
 H         4.733332         2.147390         1.804038
 H         3.489350         2.644512         3.051057
 H         2.859199        -1.023820        -0.500759
 H         2.930050         2.151461        -0.346983
 H         0.892193         1.727692         2.053129
 H         0.481936         0.385981        -1.048935
 H         0.035167        -1.122170        -0.666893
 H        -0.925427         0.189652         0.117649
 H         1.109704        -1.406878         2.425830
