19
Iteration:  3354
 C         3.841763         1.715023         2.825891
 C         3.124689         0.907653         1.688162
 O         3.436543        -0.472634         1.408734
 C         2.600057        -0.316774         0.197157
 C         2.666995         1.268400         0.276822
 C         1.604418         1.105778         1.347590
 C         1.077315        -0.273646         0.672845
 C        -0.117810        -0.144843        -0.261559
 O         0.802397        -1.299235         1.705917
 H         3.289366         1.583499         3.753860
 H         4.946670         1.509372         2.803807
 H         3.740638         2.838392         2.660786
 H         2.867570        -1.053502        -0.587110
 H         3.025466         2.073655        -0.444865
 H         0.989137         1.756638         1.982591
 H        -0.097999         0.672964        -0.879315
 H        -0.350411        -1.076956        -0.697340
 H        -1.044207        -0.014927         0.448249
 H         1.661236        -1.347415         2.242186
