19
Iteration:   806
 C         3.914334         1.552293         2.791866
 C         3.078712         0.992028         1.636790
 O         3.417911        -0.436136         1.425337
 C         2.559571        -0.381494         0.180877
 C         2.675565         1.192029         0.219221
 C         1.540792         1.175419         1.337255
 C         1.111012        -0.206460         0.817689
 C        -0.085505        -0.159826        -0.238444
 O         0.769111        -1.182213         1.769292
 H         3.685098         0.859590         3.666892
 H         4.997373         1.402644         2.486041
 H         3.818009         2.545159         3.145314
 H         2.835005        -1.027829        -0.784065
 H         3.085520         1.819761        -0.618286
 H         0.961234         2.027786         1.576684
 H        -1.013451         0.347684         0.127697
 H         0.254301         0.389048        -1.180342
 H        -0.319731        -1.139367        -0.679140
 H         1.583330        -1.556601         2.292266
