19
Iteration:   108charge 0 multiplicity 1
 C         3.899676         1.693168         2.571064
 C         3.127458         0.889446         1.630775
 O         3.443617        -0.540000         1.355590
 C         2.550686        -0.404152         0.216140
 C         2.683710         1.105582         0.230761
 C         1.647393         1.070539         1.483221
 C         1.110713        -0.218988         0.865236
 C         0.075761        -0.081302        -0.259786
 O         0.542476        -1.109533         1.839426
 H         3.758578         1.338800         3.662047
 H         4.928075         1.745076         2.250355
 H         3.605650         2.790451         2.512624
 H         2.813506        -1.111932        -0.559055
 H         2.705330         1.845885        -0.563450
 H         1.160314         1.964805         1.776391
 H         0.370222         0.512695        -1.136281
 H        -0.254326        -1.055904        -0.566338
 H        -0.810470         0.530115         0.271779
 H         1.213485        -1.089983         2.472297
