19
Iteration:   623
 C         3.676574         1.456574         2.910931
 C         3.155886         0.918125         1.570610
 O         3.442734        -0.517592         1.253505
 C         2.547000        -0.291297         0.085118
 C         2.696442         1.247361         0.149712
 C         1.669457         1.157456         1.290554
 C         1.054084        -0.198689         0.800123
 C        -0.062572        -0.188176        -0.122275
 O         0.827539        -1.084720         1.916771
 H         3.188358         0.912230         3.836999
 H         4.744476         1.460150         2.806384
 H         3.435575         2.490184         2.932601
 H         2.941336        -0.897376        -0.787243
 H         3.010767         2.086599        -0.450790
 H         1.269488         1.986027         1.683878
 H        -1.085388         0.295266         0.279060
 H         0.291344         0.144169        -1.239467
 H        -0.278044        -1.269025        -0.169934
 H         1.733787        -1.048517         2.248840
