19
Iteration:  4791
 C         3.923239         1.699415         2.651378
 C         2.983816         0.933557         1.712210
 O         3.290965        -0.504111         1.672911
 C         2.621045        -0.401471         0.286911
 C         2.759095         1.151653         0.217508
 C         1.614019         1.240235         1.212592
 C         1.113600        -0.207607         0.765178
 C        -0.002121        -0.163289        -0.345342
 O         0.693511        -1.212503         1.719904
 H         3.854408         1.177466         3.691621
 H         4.961167         1.681858         2.302722
 H         3.483983         2.720081         2.891412
 H         2.970498        -1.160969        -0.416116
 H         3.259625         1.677975        -0.605912
 H         1.108795         2.118458         1.579197
 H         0.282756         0.621317        -1.120258
 H        -0.120787        -1.108238        -0.713783
 H        -0.894517         0.024257         0.163803
 H         1.595631        -1.579157         2.031790
