19
Iteration:  3721charge 0 multiplicity 1
 C         3.892842         1.600509         2.848922
 C         3.027039         0.882210         1.693155
 O         3.337744        -0.464780         1.358404
 C         2.553745        -0.230119         0.088141
 C         2.691192         1.305216         0.263408
 C         1.609650         1.188583         1.285580
 C         1.059908        -0.283477         0.807114
 C         0.008330        -0.317273        -0.243617
 O         0.805612        -1.168273         1.792921
 H         4.133496         0.715184         3.432102
 H         4.864904         2.008440         2.485277
 H         3.361719         2.430092         3.468820
 H         3.006677        -0.861260        -0.694094
 H         2.956898         2.098303        -0.342935
 H         0.995369         2.056248         1.688039
 H         0.380027        -0.050247        -1.145300
 H        -0.288271        -1.284132        -0.545344
 H        -0.957841         0.137483        -0.057603
 H         1.552195        -1.130279         2.461878
