19
Iteration:  3429charge 0 multiplicity 1
 C         4.065352         1.823330         2.581350
 C         3.031961         0.917776         1.756500
 O         3.361054        -0.432048         1.463199
 C         2.577599        -0.323039         0.207057
 C         2.560572         1.287686         0.397373
 C         1.586952         1.053405         1.538422
 C         1.106000        -0.349657         0.831862
 C         0.163914        -0.119582        -0.390495
 O         0.590676        -1.400241         1.614851
 H         4.568398         1.352628         3.461154
 H         4.898128         2.139519         1.878411
 H         3.499958         2.757299         2.904565
 H         2.965152        -0.899364        -0.683454
 H         2.467311         2.226625        -0.267970
 H         0.980430         1.799050         2.014122
 H         0.506527         0.499807        -1.093929
 H        -0.145750        -1.080220        -0.721967
 H        -0.823200         0.426917        -0.018328
 H         1.155171        -1.659022         2.304001
