19
Iteration:  2523charge 0 multiplicity 1
 C         4.090241         1.779600         2.465963
 C         3.075810         0.906790         1.837647
 O         3.407509        -0.391432         1.485925
 C         2.545690        -0.281522         0.243739
 C         2.579076         1.233605         0.407378
 C         1.486582         1.002245         1.544594
 C         1.091846        -0.295586         0.849065
 C         0.138930        -0.043653        -0.371639
 O         0.578203        -1.456251         1.567988
 H         4.606812         1.387439         3.355599
 H         4.781220         2.089209         1.731880
 H         3.542255         2.553734         2.970665
 H         2.924343        -1.031947        -0.567373
 H         2.751102         2.121207        -0.309331
 H         0.994823         1.905773         1.888551
 H         0.439003         0.807354        -0.848332
 H         0.285482        -0.793989        -1.158762
 H        -0.937735         0.115055         0.050671
 H         1.148461        -1.483999         2.394624
