19
Iteration:  3848
 C         3.934451         1.828674         2.540403
 C         3.076079         0.984106         1.739416
 O         3.392849        -0.448078         1.497187
 C         2.645337        -0.343493         0.310616
 C         2.630098         1.230892         0.343666
 C         1.574950         1.085906         1.441662
 C         1.157413        -0.283426         0.730726
 C         0.011953        -0.068818        -0.161431
 O         0.640892        -1.485745         1.516329
 H         3.669687         1.778250         3.633039
 H         4.970895         1.647540         2.553075
 H         3.702906         2.867106         2.505948
 H         2.988485        -0.983705        -0.489714
 H         2.857591         1.886508        -0.415869
 H         0.873802         1.893285         1.694034
 H         0.121002         0.896334        -0.876630
 H        -0.251597        -1.031085        -0.725246
 H        -0.764363         0.268590         0.499230
 H         1.341558        -1.762882         2.149192
