19
Iteration:  3700
 C         3.863002         1.636100         2.711478
 C         3.110710         0.952798         1.702122
 O         3.385264        -0.494951         1.428581
 C         2.541351        -0.342017         0.243798
 C         2.671545         1.221671         0.293615
 C         1.494744         1.149019         1.382242
 C         1.073610        -0.240820         0.717018
 C        -0.016496        -0.133925        -0.346787
 O         0.875622        -1.225595         1.770680
 H         4.120122         1.049263         3.550722
 H         4.769829         2.161038         2.370649
 H         3.296076         2.485887         3.190617
 H         2.788714        -1.182236        -0.433777
 H         2.836712         1.898899        -0.473318
 H         0.755020         1.879122         1.884014
 H         0.258862         0.454971        -1.097680
 H        -0.248276        -1.076202        -0.764941
 H        -0.946628         0.138260         0.236927
 H         1.751241        -1.458347         1.994019
