19
Iteration:  1592
 C         4.007283         1.728246         2.541578
 C         3.095634         0.941058         1.717052
 O         3.413841        -0.495140         1.392316
 C         2.558628        -0.275272         0.258104
 C         2.650305         1.225142         0.304334
 C         1.609128         1.050863         1.627215
 C         1.024339        -0.229300         0.882283
 C         0.069558        -0.122467        -0.338386
 O         0.599311        -1.307432         1.614443
 H         4.023630         1.326053         3.612837
 H         5.034515         1.615049         2.108183
 H         3.618898         2.825287         2.627495
 H         2.711662        -0.987961        -0.531132
 H         2.704095         2.161509        -0.224416
 H         1.058294         1.715013         2.291837
 H        -0.250689         0.954271        -0.308743
 H         0.457290        -0.345386        -1.419702
 H        -0.770981        -0.813221        -0.046087
 H         1.433616        -1.696900         1.962511
