19
Iteration:  3609charge 0 multiplicity 1
 C         3.948153         1.763649         2.610189
 C         3.094486         0.946786         1.763180
 O         3.371863        -0.454117         1.381941
 C         2.529876        -0.318173         0.196697
 C         2.552941         1.319436         0.319678
 C         1.530109         1.031296         1.440308
 C         1.124463        -0.320887         0.840174
 C         0.150039        -0.103888        -0.268769
 O         0.655942        -1.372922         1.689513
 H         3.428263         2.125476         3.609049
 H         4.891410         1.167782         2.750156
 H         4.329860         2.765010         2.236798
 H         3.002774        -1.035298        -0.506077
 H         2.803570         2.272486        -0.237803
 H         0.957872         1.823640         1.849350
 H         0.582580         0.753749        -0.940402
 H         0.137058        -1.039807        -0.888540
 H        -0.767294         0.025521         0.161702
 H         1.432236        -1.715892         2.092668
