19
Iteration:  3310
 C         3.698755         1.454920         2.872748
 C         3.090233         0.949109         1.613040
 O         3.247873        -0.483303         1.387316
 C         2.546229        -0.260377         0.122737
 C         2.693934         1.335315         0.217291
 C         1.661974         1.149724         1.233115
 C         1.159359        -0.235509         0.751042
 C        -0.035660        -0.290110        -0.209284
 O         0.966995        -1.116815         1.827513
 H         3.324163         0.933576         3.750539
 H         4.833801         1.411824         2.721225
 H         3.430888         2.567369         3.065023
 H         2.906057        -0.962836        -0.664201
 H         3.174688         2.069199        -0.391615
 H         1.102686         2.005963         1.658378
 H        -0.101573         0.634675        -0.602999
 H        -0.052236        -1.169244        -0.777750
 H        -1.126208        -0.199402         0.312048
 H         1.710007        -1.186754         2.364404
