19
Iteration:  1277
 C         3.705889         1.472150         2.806484
 C         3.124765         0.837522         1.641492
 O         3.412454        -0.576045         1.225769
 C         2.539982        -0.281404         0.065618
 C         2.780570         1.249944         0.261532
 C         1.620782         1.212283         1.220322
 C         1.049250        -0.126165         0.898910
 C        -0.058095        -0.275783        -0.167244
 O         0.844861        -1.032511         1.884553
 H         3.173556         1.284840         3.743198
 H         4.709652         1.262363         3.029138
 H         3.772544         2.591501         2.591892
 H         2.581441        -0.979816        -0.710324
 H         3.256211         2.159937        -0.120038
 H         1.126501         1.991820         1.906151
 H        -1.104396        -0.315157         0.216721
 H         0.105178         0.454396        -0.843386
 H        -0.108287        -1.164964        -0.675557
 H         1.631931        -0.873539         2.449646
