19
Iteration:  1916charge 0 multiplicity 1
 C         3.847137         1.492887         2.803705
 C         3.063201         0.941876         1.663640
 O         3.323326        -0.495825         1.321678
 C         2.480310        -0.288773         0.124308
 C         2.711715         1.279494         0.272147
 C         1.602050         1.247583         1.314917
 C         1.045485        -0.217155         0.794755
 C        -0.011607        -0.207430        -0.238364
 O         0.913567        -1.204366         1.830157
 H         3.622440         0.731005         3.567489
 H         4.873843         1.560775         2.669646
 H         3.336668         2.362622         3.249595
 H         2.706508        -0.962989        -0.749384
 H         2.988442         2.078830        -0.364712
 H         1.114171         2.067345         1.713975
 H         0.419661         0.174060        -1.077737
 H        -0.314879        -1.183058        -0.425684
 H        -0.869555         0.401140         0.087018
 H         1.887339        -1.269554         2.163029
