19
Iteration:  1458charge 0 multiplicity 1
 C         3.950331         1.578764         2.703574
 C         3.036797         0.914073         1.731079
 O         3.416512        -0.478800         1.344670
 C         2.552991        -0.352317         0.181674
 C         2.657727         1.188490         0.259765
 C         1.612037         1.151315         1.363801
 C         1.054004        -0.218899         0.782984
 C         0.009824        -0.137697        -0.228627
 O         0.682273        -1.164676         1.837871
 H         3.505489         1.534143         3.731295
 H         4.990349         1.194568         2.591260
 H         4.055968         2.630919         2.290998
 H         2.740221        -1.027523        -0.688068
 H         3.142314         1.970379        -0.412181
 H         1.065390         2.010692         1.680062
 H        -0.859575        -0.729630         0.031812
 H        -0.224926         0.959117        -0.510261
 H         0.320386        -0.527787        -1.256566
 H         1.607584        -1.468399         2.182745
