19
Iteration:  3086charge 0 multiplicity 1
 C         3.763423         1.411526         2.884859
 C         3.051807         0.925588         1.602168
 O         3.295499        -0.480957         1.356262
 C         2.539659        -0.246266         0.073534
 C         2.749050         1.355636         0.244813
 C         1.620823         1.230270         1.187836
 C         1.119215        -0.142988         0.790172
 C        -0.027215        -0.324697        -0.108500
 O         0.895795        -1.141139         1.794410
 H         3.759493         0.473393         3.551172
 H         4.817055         1.643275         2.670432
 H         3.243999         2.275384         3.336315
 H         3.082305        -0.888547        -0.578258
 H         2.894083         2.055821        -0.470940
 H         1.137131         2.005773         1.841162
 H         0.207316        -0.070547        -1.188637
 H        -0.378213        -1.370091        -0.315280
 H        -0.811703         0.218198         0.275054
 H         1.601906        -1.152474         2.448331
