19
Iteration:  1994
 C         3.746516         1.638396         2.829072
 C         3.106986         0.909651         1.678489
 O         3.351595        -0.554508         1.259588
 C         2.564780        -0.281446         0.080087
 C         2.761259         1.238335         0.311660
 C         1.615232         1.147591         1.346521
 C         1.096390        -0.194551         0.838143
 C        -0.086718        -0.173286        -0.173295
 O         0.858778        -1.205388         1.774041
 H         3.458407         1.289663         3.845323
 H         4.805374         1.459719         2.737801
 H         3.702915         2.681404         2.739856
 H         2.701372        -0.912798        -0.894264
 H         3.085902         2.074282        -0.396310
 H         1.095389         2.075046         1.722342
 H        -0.068437         0.693499        -0.732569
 H        -0.069177        -1.058162        -0.819993
 H        -0.988889        -0.169103         0.398779
 H         1.674444        -1.657118         2.016509
