19
Iteration:   583charge 0 multiplicity 1
 C         3.854735         1.536467         2.770976
 C         3.042488         0.957297         1.635545
 O         3.359570        -0.470489         1.394542
 C         2.551345        -0.361579         0.181456
 C         2.661328         1.236698         0.260310
 C         1.607478         1.156256         1.215690
 C         1.109729        -0.183277         0.829283
 C        -0.067360        -0.114026        -0.179045
 O         0.871967        -1.228892         1.773167
 H         3.619975         0.957625         3.657464
 H         4.886993         1.233560         2.527481
 H         3.822957         2.657202         2.946483
 H         2.769860        -1.019655        -0.626575
 H         3.149703         1.889860        -0.448004
 H         0.944213         2.029486         1.571510
 H        -0.891953         0.365341         0.259312
 H         0.185035         0.354283        -1.058913
 H        -0.583265        -1.103173        -0.238247
 H         1.690510        -1.171207         2.239730
