19
Iteration:  4809
 C         3.808515         1.657493         2.773553
 C         3.116562         0.905908         1.650517
 O         3.247615        -0.541076         1.531499
 C         2.592762        -0.391957         0.244146
 C         2.831234         1.125320         0.243463
 C         1.641063         1.152502         1.278811
 C         1.116244        -0.146729         0.683348
 C         0.031451        -0.296035        -0.288441
 O         0.705976        -1.003246         1.762117
 H         4.029053         1.081220         3.640567
 H         4.795736         2.074750         2.431637
 H         3.180602         2.552835         3.055961
 H         2.880525        -1.137261        -0.525293
 H         3.016902         2.015713        -0.434586
 H         1.050328         1.987663         1.555451
 H         0.147825         0.311412        -1.191097
 H        -0.033817        -1.401704        -0.757996
 H        -1.053994        -0.217999         0.183586
 H         1.487483        -0.897166         2.408424
