19
Iteration:   969charge 0 multiplicity 1
 C         4.044737         1.739804         2.487929
 C         3.129319         0.865866         1.713534
 O         3.317077        -0.549481         1.511312
 C         2.544498        -0.338100         0.300434
 C         2.651560         1.254479         0.385788
 C         1.519334         1.094309         1.472983
 C         1.095539        -0.257829         0.788182
 C         0.008251        -0.032808        -0.324980
 O         0.692042        -1.282900         1.676886
 H         4.134395         1.411368         3.537149
 H         4.998550         1.853215         1.934218
 H         3.603071         2.699652         2.528592
 H         2.998999        -0.948597        -0.590415
 H         2.919213         2.044260        -0.254122
 H         0.787678         1.896281         1.890716
 H        -0.735354         0.719310        -0.133620
 H         0.536006         0.058604        -1.314407
 H        -0.380284        -1.018335        -0.491638
 H         1.479932        -1.577674         2.091841
