19
Iteration:  2297
 C         4.009222         1.845997         2.484441
 C         3.014079         0.845706         1.807346
 O         3.361712        -0.506729         1.536906
 C         2.633667        -0.341032         0.317434
 C         2.634656         1.103181         0.358006
 C         1.569434         1.066056         1.394246
 C         1.090078        -0.260241         0.779401
 C         0.024791         0.019939        -0.219569
 O         0.648168        -1.360528         1.528906
 H         4.707638         1.278870         3.241633
 H         4.815686         2.287264         1.807111
 H         3.521907         2.764375         2.840475
 H         3.071431        -0.773517        -0.639045
 H         2.871750         1.937736        -0.198680
 H         1.046446         1.869857         1.983655
 H         0.198738         0.844349        -0.854101
 H         0.012654        -0.880292        -0.871630
 H        -0.968316         0.384507         0.296001
 H         1.258440        -1.471962         2.374547
