19
Iteration:  1775
 C         3.883431         1.579874         2.712685
 C         3.078135         0.838600         1.691944
 O         3.340530        -0.508772         1.397672
 C         2.546723        -0.265071         0.217949
 C         2.669534         1.231205         0.301294
 C         1.599779         1.108851         1.415281
 C         1.107394        -0.158265         0.749620
 C        -0.036819        -0.188222        -0.234473
 O         0.811261        -1.149306         1.672891
 H         3.918337         1.216764         3.749237
 H         4.869750         1.456070         2.376973
 H         3.641640         2.650630         2.838692
 H         2.763171        -0.893983        -0.653524
 H         3.069243         2.029026        -0.399771
 H         1.011716         1.878515         1.964028
 H        -0.161947         0.695685        -0.761929
 H        -0.008961        -1.012747        -1.082449
 H        -0.909714        -0.342468         0.475986
 H         1.612843        -1.176221         2.195746
