19
Iteration:  1736charge 0 multiplicity 1
 C         3.806213         1.313890         2.917555
 C         3.070399         0.952133         1.687668
 O         3.359145        -0.417063         1.302080
 C         2.453714        -0.251095         0.137724
 C         2.702843         1.304696         0.179332
 C         1.601894         1.242182         1.239095
 C         1.092049        -0.176990         0.794863
 C        -0.055897        -0.273057        -0.193106
 O         0.941276        -1.140928         1.840773
 H         3.547758         0.458630         3.602956
 H         4.860519         1.605046         2.530375
 H         3.525778         2.243784         3.370195
 H         2.817187        -0.927013        -0.693557
 H         3.037648         1.872022        -0.649978
 H         0.986273         1.959125         1.671957
 H         0.378294         0.148413        -1.205212
 H        -0.463624        -1.233799        -0.382507
 H        -0.874484         0.334428         0.113081
 H         1.740176        -1.128468         2.284586
