19
Iteration:  2028
 C         3.997586         1.666226         2.585923
 C         3.063469         0.988666         1.686360
 O         3.365895        -0.461433         1.477505
 C         2.570811        -0.300313         0.218645
 C         2.584038         1.242862         0.376458
 C         1.523748         1.075234         1.488137
 C         1.077247        -0.284422         0.818411
 C         0.043932        -0.036337        -0.250747
 O         0.758808        -1.399238         1.610128
 H         4.006562         1.308611         3.619791
 H         4.937521         1.327168         2.083806
 H         3.917783         2.703808         2.525594
 H         2.742194        -1.010083        -0.674378
 H         2.789162         2.063763        -0.334169
 H         0.934158         2.063530         1.826127
 H         0.336896         0.823517        -0.827088
 H        -0.005808        -0.877556        -0.965435
 H        -0.926706         0.110196         0.033081
 H         1.353506        -1.237959         2.323852
