19
Iteration:  4083charge 0 multiplicity 1
 C         4.056410         1.802201         2.532306
 C         3.041496         0.898075         1.788414
 O         3.384519        -0.389442         1.489285
 C         2.569855        -0.265177         0.251369
 C         2.480036         1.250452         0.421327
 C         1.484483         1.074999         1.519709
 C         1.113373        -0.257901         0.807465
 C         0.157882        -0.148135        -0.360615
 O         0.686211        -1.461105         1.578115
 H         4.363909         1.291089         3.379568
 H         4.869784         1.847978         1.870200
 H         3.449973         2.632240         2.863344
 H         3.118478        -0.786741        -0.567592
 H         2.820641         2.137565        -0.138765
 H         0.616069         1.795951         1.812734
 H         0.560160         0.676454        -0.962190
 H         0.115905        -1.151737        -0.815068
 H        -0.921264         0.258152        -0.083525
 H         1.439489        -1.617620         2.135269
