19
Iteration:  4137charge 0 multiplicity 1
 C         3.713688         1.675639         2.872683
 C         3.035505         0.969456         1.657248
 O         3.395997        -0.432641         1.394058
 C         2.573291        -0.316106         0.164297
 C         2.735537         1.251151         0.183826
 C         1.587228         1.109029         1.321132
 C         1.138211        -0.295124         0.741668
 C         0.007409        -0.144638        -0.179701
 O         0.834256        -1.335363         1.745465
 H         4.148770         0.920079         3.429344
 H         4.526948         2.221018         2.395158
 H         3.061222         2.393640         3.397901
 H         2.950164        -0.945984        -0.669052
 H         2.913538         2.084570        -0.548947
 H         1.169747         2.102271         1.724038
 H         0.113661         0.735804        -0.727265
 H        -0.177196        -0.871601        -0.959132
 H        -1.009219        -0.163873         0.325116
 H         1.545851        -1.450350         2.351146
