19
Iteration:  3173charge 0 multiplicity 1
 C         3.997628         1.786886         2.587055
 C         3.094513         0.974705         1.780370
 O         3.442740        -0.482153         1.488114
 C         2.516509        -0.379941         0.300549
 C         2.625919         1.223576         0.300381
 C         1.568554         1.057715         1.445746
 C         1.097730        -0.253034         0.819344
 C        -0.032484        -0.009764        -0.235485
 O         0.685963        -1.417945         1.513393
 H         3.792891         1.724914         3.725043
 H         5.063657         1.578140         2.471915
 H         3.869561         2.830018         2.302536
 H         2.925117        -1.131144        -0.366384
 H         2.710914         1.978493        -0.500439
 H         0.971747         1.908929         1.750940
 H         0.013612         1.079857        -0.833156
 H         0.103657        -0.963204        -0.836203
 H        -0.985976        -0.076513         0.250088
 H         1.466774        -1.603327         2.122929
