19
Iteration:  3007charge 0 multiplicity 1
 C         3.906376         1.743226         2.638737
 C         3.152249         0.880589         1.666830
 O         3.418448        -0.474520         1.395744
 C         2.523172        -0.349741         0.293618
 C         2.563165         1.176708         0.329776
 C         1.543868         1.051905         1.494880
 C         1.135230        -0.246456         0.810569
 C         0.063596        -0.011000        -0.284968
 O         0.702863        -1.324244         1.624800
 H         3.746891         1.555611         3.703866
 H         5.011688         1.832382         2.454134
 H         3.710890         2.847271         2.426423
 H         2.819001        -1.005072        -0.562576
 H         2.539413         2.089610        -0.362939
 H         1.179505         1.792101         2.178685
 H         0.137454         1.014153        -0.881835
 H         0.039278        -0.905697        -0.900172
 H        -0.872480        -0.031163         0.114581
 H         1.507801        -1.625608         2.193098
