19
Iteration:   221
 C         3.837454         1.687194         2.676097
 C         3.107856         0.881615         1.646995
 O         3.416808        -0.630228         1.241402
 C         2.507814        -0.320834         0.230897
 C         2.630446         1.198719         0.311134
 C         1.661771         1.126967         1.413838
 C         1.136632        -0.240120         0.822609
 C         0.076522        -0.122803        -0.225345
 O         0.692912        -1.127331         1.820145
 H         3.415231         1.470626         3.637133
 H         5.063656         1.607815         2.541151
 H         3.561140         2.741429         2.485904
 H         2.740698        -0.927614        -0.673170
 H         2.767456         1.979548        -0.398341
 H         0.983176         2.016646         1.813251
 H        -0.287350        -1.194445        -0.464121
 H        -0.792232         0.473797         0.256810
 H         0.335811         0.453334        -1.098405
 H         1.371740        -1.300574         2.484626
