19
Iteration:  2959
 C         4.052484         1.754814         2.506462
 C         3.104718         0.920037         1.739054
 O         3.407468        -0.433924         1.512982
 C         2.588552        -0.338154         0.289577
 C         2.482947         1.283465         0.343412
 C         1.583802         1.046504         1.565408
 C         1.175745        -0.320994         0.785871
 C         0.079438        -0.048298        -0.223147
 O         0.603430        -1.378378         1.490329
 H         3.840198         1.704748         3.579731
 H         5.092153         1.487811         2.390147
 H         4.087143         2.774046         2.266983
 H         2.821241        -1.045048        -0.476207
 H         2.430574         2.027524        -0.381094
 H         0.752648         1.767156         1.806572
 H         0.156706         0.842672        -0.636281
 H         0.069980        -0.869220        -0.922828
 H        -1.053091        -0.052303         0.091006
 H         1.229278        -1.480251         2.237208
