19
Iteration:  1574charge 0 multiplicity 1
 C         3.927018         1.685672         2.652958
 C         3.142776         0.848931         1.692927
 O         3.451758        -0.507345         1.305024
 C         2.488070        -0.321988         0.200677
 C         2.562850         1.254557         0.403579
 C         1.585604         1.069752         1.438570
 C         1.139130        -0.223217         0.867914
 C         0.095749        -0.049275        -0.302920
 O         0.627443        -1.285568         1.756871
 H         3.971500         1.323170         3.656979
 H         4.888649         2.063692         2.213225
 H         3.492288         2.621754         2.698768
 H         2.628556        -0.992103        -0.736709
 H         2.874294         1.975598        -0.426601
 H         1.029844         1.835902         1.849453
 H        -0.479666         1.011839        -0.389477
 H         0.658498        -0.197792        -1.142559
 H        -0.612819        -0.819491        -0.356357
 H         1.398738        -1.580652         2.289342
