19
Iteration:   271
 C         4.130750         1.726861         2.562511
 C         3.069552         0.961980         1.679718
 O         3.388081        -0.473040         1.541955
 C         2.594126        -0.408965         0.243743
 C         2.516487         1.124316         0.294404
 C         1.525769         1.108075         1.449645
 C         1.117250        -0.255633         0.814442
 C         0.003048         0.019873        -0.226248
 O         0.679113        -1.316098         1.599340
 H         4.080120         1.211729         3.571140
 H         4.987729         1.846915         2.026298
 H         3.874627         2.795265         2.723701
 H         2.918290        -1.162647        -0.431967
 H         2.550140         1.972847        -0.423262
 H         0.938882         1.968441         1.649123
 H        -0.805458        -0.571316         0.170057
 H        -0.432790         0.978244        -0.199069
 H         0.322489        -0.364129        -1.249992
 H         1.418343        -1.637246         2.174189
