19
Iteration:  1232
 C         3.969285         1.555106         2.698524
 C         3.062654         0.955817         1.663810
 O         3.322810        -0.458916         1.474509
 C         2.550513        -0.380771         0.223261
 C         2.689640         1.256797         0.213447
 C         1.576251         1.164498         1.318775
 C         1.083672        -0.219534         0.752103
 C        -0.076628        -0.105081        -0.170817
 O         0.792665        -1.254707         1.732740
 H         3.758127         1.106055         3.680746
 H         4.996252         1.353420         2.572449
 H         3.907408         2.672572         2.721160
 H         2.950145        -1.074571        -0.494555
 H         3.075048         1.924789        -0.515225
 H         1.024892         2.006556         1.549394
 H        -1.044903        -0.267662         0.247875
 H         0.129476         0.782834        -0.693629
 H        -0.081289        -0.854050        -0.892188
 H         1.581460        -1.218567         2.206668
