19
Iteration:  3783charge 0 multiplicity 1
 C         3.746840         1.570982         2.806805
 C         3.015780         0.903407         1.707112
 O         3.364999        -0.474468         1.309425
 C         2.524416        -0.269708         0.126113
 C         2.689887         1.280114         0.175654
 C         1.601119         1.155696         1.280428
 C         1.144340        -0.258042         0.823173
 C         0.025155        -0.196106        -0.256940
 O         0.866680        -1.191821         1.894996
 H         3.431331         1.062124         3.784838
 H         4.775591         1.272300         2.747067
 H         3.475585         2.651837         2.863653
 H         2.886160        -0.991757        -0.597567
 H         2.981782         2.036682        -0.500889
 H         0.969890         1.914851         1.719646
 H         0.145995         0.800932        -0.964268
 H         0.254017        -1.255260        -0.660962
 H        -0.941228        -0.092931         0.213812
 H         1.758080        -1.236295         2.260257
