19
Iteration:  3931charge 0 multiplicity 1
 C         3.870440         1.594396         2.843532
 C         3.065927         0.895892         1.666990
 O         3.483368        -0.401395         1.363954
 C         2.606339        -0.305788         0.197744
 C         2.604976         1.315020         0.226666
 C         1.528821         1.137910         1.382286
 C         1.149692        -0.188386         0.768291
 C        -0.072086        -0.315326        -0.317420
 O         0.761929        -1.197098         1.747846
 H         3.877262         0.693779         3.474602
 H         4.820150         2.102960         2.592561
 H         3.204687         2.397059         3.214281
 H         2.939964        -0.957890        -0.627341
 H         2.989028         2.123132        -0.339575
 H         0.919759         1.849236         1.896407
 H         0.046429         0.311692        -1.136984
 H        -0.006404        -1.340517        -0.657377
 H        -0.938158        -0.137821         0.309916
 H         1.590050        -1.328213         2.349239
