19
Iteration:  3660charge 0 multiplicity 1
 C         3.924021         1.877018         2.628102
 C         3.129912         0.957118         1.697257
 O         3.372898        -0.462648         1.435721
 C         2.570643        -0.402495         0.251738
 C         2.694091         1.254172         0.323195
 C         1.564039         1.044975         1.429090
 C         1.191168        -0.345276         0.811055
 C         0.028724        -0.035020        -0.243113
 O         0.631820        -1.434378         1.603248
 H         3.697355         1.562035         3.652596
 H         5.013903         1.855261         2.389107
 H         3.469967         2.826757         2.526740
 H         2.994908        -1.006177        -0.544968
 H         2.762108         1.892706        -0.525071
 H         0.895231         1.876197         1.818828
 H         0.156719         1.110330        -0.393498
 H        -0.066839        -0.781854        -1.069856
 H        -0.979963         0.049198         0.364208
 H         1.165537        -1.515426         2.473736
