19
Iteration:  4760
 C         4.013661         1.803830         2.566379
 C         3.007857         0.985683         1.743852
 O         3.282381        -0.438687         1.676419
 C         2.609352        -0.490162         0.343158
 C         2.643273         1.112202         0.213018
 C         1.583738         1.100379         1.338863
 C         1.103712        -0.295079         0.790920
 C         0.142649         0.046128        -0.323763
 O         0.646440        -1.373372         1.605737
 H         3.622110         1.900989         3.623743
 H         4.983343         1.407184         2.652513
 H         4.127100         2.808592         2.180044
 H         2.948099        -1.324285        -0.271853
 H         2.750521         1.709341        -0.694687
 H         1.011354         2.006681         1.604791
 H         0.588556         0.783140        -1.089096
 H        -0.106444        -0.810220        -0.920884
 H        -0.765995         0.426417         0.031643
 H         1.135409        -1.344714         2.395304
