19
Iteration:   824charge 0 multiplicity 1
 C         3.871035         1.436917         2.749592
 C         3.029289         0.906922         1.668052
 O         3.294681        -0.457924         1.439920
 C         2.562095        -0.277438         0.243889
 C         2.776576         1.279674         0.194539
 C         1.603461         1.238989         1.195627
 C         1.067049        -0.187176         0.780761
 C        -0.066300        -0.233110        -0.195638
 O         0.855036        -1.147250         1.796616
 H         3.807008         0.819638         3.608564
 H         4.942251         1.195097         2.480819
 H         3.502698         2.458013         2.935520
 H         2.788790        -1.059646        -0.420398
 H         2.973186         2.134890        -0.462809
 H         1.066425         2.020637         1.651960
 H        -0.917769         0.050524         0.360136
 H        -0.070153         0.461572        -0.977406
 H        -0.002424        -1.332492        -0.618721
 H         1.808226        -1.298884         2.102277
