19
Iteration:  3842
 C         3.961316         1.875934         2.616579
 C         3.065201         0.966657         1.717404
 O         3.387380        -0.459397         1.481134
 C         2.597019        -0.308432         0.284438
 C         2.709162         1.210859         0.343838
 C         1.550717         1.081135         1.398642
 C         1.144279        -0.330804         0.753847
 C        -0.008015        -0.074942        -0.158690
 O         0.654406        -1.474850         1.519668
 H         3.504570         1.685761         3.596161
 H         5.093072         1.666188         2.551857
 H         3.736211         2.981765         2.354023
 H         3.086085        -1.007280        -0.433296
 H         2.958907         2.083702        -0.391844
 H         0.894072         1.938069         1.691743
 H         0.110748         0.712045        -0.742328
 H        -0.364349        -0.816270        -0.802180
 H        -0.861924         0.183608         0.567228
 H         1.351188        -1.800839         2.206416
