19
Iteration:   810charge 0 multiplicity 1
 C         3.911275         1.497032         2.757206
 C         3.065812         1.019938         1.642743
 O         3.410727        -0.428354         1.438180
 C         2.556233        -0.375574         0.173530
 C         2.702883         1.188819         0.245778
 C         1.559268         1.163406         1.293862
 C         1.071545        -0.177572         0.802133
 C        -0.078699        -0.165546        -0.232798
 O         0.790420        -1.181992         1.784893
 H         3.553231         0.830518         3.575144
 H         4.938861         1.472006         2.509918
 H         3.848041         2.551546         3.180880
 H         2.862381        -0.987442        -0.643792
 H         3.123417         1.853632        -0.472737
 H         0.938839         2.114956         1.582384
 H        -1.114980         0.169713         0.177379
 H         0.252397         0.381094        -1.140848
 H        -0.305693        -1.155812        -0.564069
 H         1.639390        -1.528644         2.125610
