19
Iteration:  1133
 C         3.929143         1.703290         2.599371
 C         3.131546         0.960895         1.675823
 O         3.471294        -0.487076         1.408315
 C         2.547040        -0.389671         0.239380
 C         2.627069         1.270294         0.254257
 C         1.631554         0.998357         1.499193
 C         1.093843        -0.264590         0.826104
 C         0.086892        -0.047110        -0.244908
 O         0.575748        -1.278462         1.696250
 H         3.786108         1.289879         3.662381
 H         4.947902         1.642287         2.175684
 H         3.729417         2.813714         2.763162
 H         2.748594        -1.205388        -0.567768
 H         2.522225         2.148493        -0.482782
 H         0.929812         1.623332         1.939325
 H        -0.749294         0.660320         0.069544
 H         0.537387         0.311351        -1.221930
 H        -0.271298        -0.999935        -0.614075
 H         0.917704        -1.083843         2.500252
