19
Iteration:  1124
 C         3.963420         1.678781         2.660365
 C         3.104496         0.974726         1.627342
 O         3.402550        -0.422587         1.397201
 C         2.570627        -0.402237         0.232892
 C         2.644880         1.214605         0.283727
 C         1.636704         1.019927         1.399055
 C         1.083192        -0.246869         0.881568
 C         0.035254        -0.075256        -0.272534
 O         0.637467        -1.271361         1.699856
 H         3.727121         1.133690         3.617878
 H         4.975045         1.427710         2.480736
 H         3.820738         2.809403         2.848648
 H         2.934845        -0.995088        -0.613544
 H         2.686016         2.050198        -0.469404
 H         1.102409         1.750600         1.901555
 H        -0.942946         0.504904         0.079385
 H         0.318514         0.453840        -1.169266
 H        -0.243171        -1.067007        -0.439243
 H         0.932956        -1.196649         2.544820
