19
Iteration:  4016charge 0 multiplicity 1
 C         3.723811         1.765680         2.868964
 C         3.091895         0.902797         1.681500
 O         3.460821        -0.439760         1.292034
 C         2.571354        -0.322002         0.147254
 C         2.661220         1.354011         0.267507
 C         1.586294         1.045951         1.358667
 C         1.145079        -0.314332         0.759261
 C         0.022421        -0.181149        -0.184607
 O         0.754083        -1.312001         1.708580
 H         3.349242         1.749329         3.819657
 H         4.731473         1.382758         3.011515
 H         3.834872         2.826517         2.598239
 H         2.895960        -0.866714        -0.771434
 H         3.122455         2.149423        -0.275100
 H         1.047336         1.717011         2.027809
 H         0.176075         0.537559        -0.903495
 H        -0.318823        -1.090715        -0.689644
 H        -1.042406         0.083001         0.291003
 H         1.557436        -1.738880         2.177537
