19
Iteration:  1525charge 0 multiplicity 1
 C         3.848584         1.503398         2.819529
 C         3.120120         0.941546         1.585768
 O         3.389887        -0.489031         1.372350
 C         2.568105        -0.367407         0.187011
 C         2.715292         1.216559         0.179736
 C         1.602988         1.193194         1.266023
 C         1.114690        -0.189977         0.770284
 C        -0.067494        -0.158731        -0.109563
 O         0.754226        -1.173125         1.777889
 H         3.566384         0.776625         3.647617
 H         4.911630         1.743057         2.836958
 H         3.305076         2.507116         3.175696
 H         2.978099        -0.955798        -0.589511
 H         2.949504         2.024733        -0.489902
 H         1.066163         2.191294         1.574398
 H        -0.828217         0.216928         0.520442
 H         0.046009         0.678815        -0.970263
 H        -0.351261        -1.187314        -0.602011
 H         1.639808        -1.329461         2.187928
