19
Iteration:    68charge 0 multiplicity 1
 C         4.105228         1.778042         2.528314
 C         3.163664         0.978685         1.713409
 O         3.435500        -0.472278         1.395294
 C         2.477644        -0.483013         0.353428
 C         2.619483         1.021686         0.214802
 C         1.621592         1.153805         1.436057
 C         1.103006        -0.233686         0.901965
 C         0.090270        -0.013897        -0.271635
 O         0.448629        -1.250427         1.743359
 H         4.033326         1.425261         3.506959
 H         5.170050         1.532398         2.200404
 H         4.005775         2.803850         2.455393
 H         2.587883        -1.161925        -0.432523
 H         2.587540         1.718303        -0.640572
 H         1.039858         2.013536         1.501078
 H        -0.107337         1.049946        -0.526245
 H         0.421290        -0.546820        -1.191298
 H        -0.785904        -0.363283         0.027885
 H         1.137672        -1.595325         2.458460
