19
Iteration:  4345charge 0 multiplicity 1
 C         3.839955         1.728465         2.700286
 C         3.029341         0.950227         1.674764
 O         3.424491        -0.442051         1.460556
 C         2.637588        -0.347861         0.253920
 C         2.536508         1.170727         0.206761
 C         1.518305         1.099923         1.429223
 C         1.147059        -0.310106         0.790487
 C         0.034508        -0.052373        -0.283824
 O         0.824267        -1.333978         1.671519
 H         3.244755         1.919580         3.658420
 H         4.672010         1.197958         3.116759
 H         4.264132         2.740611         2.440244
 H         2.989281        -1.019968        -0.529803
 H         2.588594         2.058694        -0.465436
 H         0.890148         1.871098         1.854033
 H         0.327309         0.750101        -0.948452
 H         0.036032        -0.952237        -0.829486
 H        -0.990475        -0.042597         0.088325
 H         1.495250        -1.246319         2.327256
