19
Iteration:  1029
 C         3.774291         1.539418         2.803636
 C         3.106209         0.937226         1.600786
 O         3.489036        -0.455291         1.356710
 C         2.526311        -0.320547         0.163846
 C         2.708389         1.193715         0.162851
 C         1.715887         1.117466         1.322036
 C         1.126660        -0.214141         0.807647
 C        -0.081747        -0.182688        -0.199754
 O         0.671239        -1.093728         1.847902
 H         3.553433         1.013955         3.713623
 H         4.839438         1.431507         2.739948
 H         3.490630         2.616711         2.954119
 H         2.889655        -0.937102        -0.560623
 H         3.139723         1.858808        -0.624262
 H         1.223227         1.929360         1.714870
 H        -1.109922        -0.187821         0.210251
 H        -0.060669         0.704394        -0.780265
 H         0.003291        -1.130731        -0.803066
 H         1.371059        -1.617074         2.313398
