19
Iteration:  2375charge 0 multiplicity 1
 C         3.754054         1.499333         2.821724
 C         3.148936         0.850934         1.633511
 O         3.464547        -0.471355         1.327145
 C         2.656689        -0.309597         0.134896
 C         2.608774         1.374773         0.273419
 C         1.546246         1.106190         1.326607
 C         1.120143        -0.169303         0.765230
 C        -0.078806        -0.262369        -0.226917
 O         0.791311        -1.095904         1.830073
 H         3.383259         0.931819         3.739061
 H         4.893205         1.241889         2.800773
 H         3.724378         2.585736         2.864037
 H         2.985583        -0.804241        -0.781165
 H         2.971181         2.009096        -0.624641
 H         0.959681         1.726078         1.901244
 H         0.128206         0.432740        -1.123829
 H        -0.186301        -1.301008        -0.556079
 H        -1.085397        -0.125584         0.165931
 H         1.478340        -0.957484         2.441540
