19
Iteration:  1550charge 0 multiplicity 1
 C         3.810015         1.588495         2.743327
 C         3.045355         0.898852         1.621170
 O         3.488516        -0.480702         1.333575
 C         2.548207        -0.389232         0.170087
 C         2.672906         1.215995         0.222642
 C         1.586568         1.040599         1.396963
 C         1.124952        -0.206219         0.781800
 C         0.008675        -0.009317        -0.230218
 O         0.727541        -1.207718         1.829831
 H         3.806104         0.873647         3.585545
 H         4.834366         1.886567         2.444109
 H         3.419917         2.534073         3.121482
 H         2.896521        -0.967507        -0.693858
 H         2.717824         1.966608        -0.551304
 H         1.088659         1.703601         2.042451
 H        -0.755331         0.823061         0.042381
 H         0.448027         0.214830        -1.193782
 H        -0.510170        -0.985459        -0.345904
 H         1.453704        -0.973561         2.548013
