19
Iteration:  2983charge 0 multiplicity 1
 C         4.017656         1.833995         2.542733
 C         3.059964         0.961692         1.756714
 O         3.532016        -0.413908         1.433737
 C         2.528565        -0.309039         0.244410
 C         2.665942         1.197482         0.371772
 C         1.525640         1.088621         1.497008
 C         1.066807        -0.343715         0.835815
 C         0.033922        -0.007933        -0.252579
 O         0.533488        -1.486728         1.602204
 H         3.880596         1.683726         3.594302
 H         5.021415         1.383676         2.351306
 H         4.228677         2.870344         2.380478
 H         2.757035        -0.940075        -0.629659
 H         2.996905         2.041301        -0.239414
 H         0.975460         1.848749         1.941736
 H         0.270295         0.971145        -0.653235
 H         0.208500        -0.757725        -0.978210
 H        -1.037612        -0.054040        -0.118220
 H         1.274859        -1.962161         1.916463
