19
Iteration:  2362charge 0 multiplicity 1
 C         3.855317         1.493639         2.769817
 C         3.091429         0.975033         1.616918
 O         3.465270        -0.405431         1.299463
 C         2.537892        -0.303772         0.193682
 C         2.650178         1.278344         0.301289
 C         1.550998         1.079082         1.333339
 C         1.123342        -0.272959         0.797911
 C         0.056529        -0.232831        -0.257177
 O         0.699237        -1.115869         1.792493
 H         3.522025         0.947202         3.731364
 H         4.979901         1.463064         2.631679
 H         3.476128         2.497812         2.985278
 H         2.723831        -1.095407        -0.581661
 H         2.945603         2.154440        -0.290241
 H         0.998763         1.774984         1.973072
 H         0.144908         0.530798        -0.978946
 H         0.039008        -1.193932        -0.804344
 H        -0.874923         0.017961         0.374655
 H         1.440364        -1.212456         2.496529
