19
Iteration:   509
 C         4.053107         1.771636         2.507795
 C         3.102471         0.935456         1.651644
 O         3.470681        -0.426459         1.463275
 C         2.533856        -0.387365         0.273936
 C         2.562202         1.157958         0.287255
 C         1.601942         0.985865         1.497943
 C         1.133166        -0.311317         0.860050
 C         0.103966         0.067832        -0.290739
 O         0.475474        -1.330042         1.705042
 H         3.893182         1.402786         3.472363
 H         5.136874         1.730161         2.148162
 H         3.797082         2.905569         2.540133
 H         2.890839        -1.128052        -0.399122
 H         2.659110         2.017403        -0.346676
 H         0.915615         1.788466         2.124777
 H        -0.902393        -0.343574        -0.119062
 H         0.156584         1.102207        -0.556471
 H         0.442181        -0.586381        -1.201786
 H         1.191075        -1.695985         2.280426
