19
Iteration:  1578
 C         3.953368         1.704519         2.634701
 C         3.118705         0.836237         1.702031
 O         3.450934        -0.500031         1.324285
 C         2.465856        -0.330786         0.205342
 C         2.601713         1.269808         0.374121
 C         1.589720         1.058843         1.471089
 C         1.126164        -0.198180         0.847056
 C         0.105582        -0.032494        -0.297487
 O         0.606647        -1.307946         1.740383
 H         4.026578         1.325505         3.667645
 H         4.896068         1.984962         2.200514
 H         3.500273         2.759568         2.652079
 H         2.700985        -0.893379        -0.673345
 H         2.767400         1.965876        -0.413080
 H         1.017441         1.878993         2.092245
 H        -0.450069         0.807001        -0.430947
 H         0.717451        -0.332664        -1.237091
 H        -0.656916        -0.871573        -0.263424
 H         1.436610        -1.661802         2.218253
