19
Iteration:  4609
 C         3.675407         1.630711         2.821010
 C         3.061423         0.836673         1.671786
 O         3.415522        -0.537918         1.411275
 C         2.638625        -0.299768         0.144962
 C         2.785001         1.213431         0.321148
 C         1.549816         1.165069         1.166366
 C         1.119735        -0.179896         0.722733
 C        -0.028851        -0.233275        -0.154592
 O         0.789223        -1.108783         1.758281
 H         4.456020         2.375949         2.464799
 H         2.919626         2.198332         3.392120
 H         4.251706         1.082874         3.510117
 H         2.980839        -0.889468        -0.720828
 H         3.394481         1.895269        -0.374785
 H         1.062510         1.987302         1.601512
 H         0.034624         0.363184        -1.137528
 H         0.057862        -1.307589        -0.475092
 H        -0.987377        -0.134775         0.252026
 H         1.355525        -1.083220         2.536447
