19
Iteration:  3794charge 0 multiplicity 1
 C         3.714437         1.585432         2.742646
 C         3.044316         0.917887         1.604581
 O         3.376866        -0.495741         1.417743
 C         2.530314        -0.358955         0.146584
 C         2.656552         1.278931         0.268894
 C         1.563696         1.138860         1.299839
 C         1.138891        -0.182758         0.793089
 C         0.065136        -0.176212        -0.147927
 O         0.896341        -1.203292         1.781855
 H         3.231798         1.263011         3.713067
 H         4.778738         1.448164         2.677571
 H         3.655547         2.686230         2.596289
 H         2.674942        -1.061232        -0.670987
 H         3.077902         1.983780        -0.372316
 H         0.958308         1.828345         1.876964
 H         0.264152         0.804807        -0.846264
 H        -0.022990        -0.913747        -1.012175
 H        -0.932818        -0.145732         0.262224
 H         1.799927        -1.412089         2.177233
