19
Iteration:  3925
 C         3.809843         1.581885         2.748735
 C         3.073886         0.974908         1.640122
 O         3.472026        -0.413201         1.334846
 C         2.578382        -0.307979         0.208630
 C         2.618899         1.263761         0.319062
 C         1.508803         1.080210         1.452536
 C         1.163060        -0.192202         0.776775
 C        -0.004445        -0.285538        -0.334551
 O         0.751871        -1.179643         1.736127
 H         4.162046         0.854592         3.571075
 H         4.772944         2.046998         2.464942
 H         3.349892         2.451330         3.260898
 H         2.989848        -0.934358        -0.572765
 H         3.002798         2.119776        -0.294229
 H         0.917725         1.893778         1.975316
 H         0.175304         0.383808        -1.331936
 H        -0.023282        -1.398470        -0.502311
 H        -0.935742        -0.174137         0.264082
 H         1.438593        -1.397057         2.373711
