19
Iteration:  3132
 C         3.824605         1.599907         2.805831
 C         3.064307         0.914257         1.663213
 O         3.390100        -0.514942         1.367375
 C         2.579375        -0.294701         0.136255
 C         2.606444         1.274585         0.227509
 C         1.643111         1.037740         1.373408
 C         1.108248        -0.221796         0.779496
 C         0.036820        -0.152728        -0.228843
 O         0.792931        -1.136320         1.792152
 H         3.538986         1.199561         3.856697
 H         4.909177         1.462305         2.720748
 H         3.605012         2.641496         2.625728
 H         2.595408        -0.980940        -0.696058
 H         2.534813         2.133431        -0.507856
 H         1.012727         1.663107         1.919323
 H         0.240995         0.616617        -0.919073
 H         0.055506        -0.970443        -0.968427
 H        -1.012489        -0.122613         0.252962
 H         1.654503        -1.372071         2.167794
