19
Iteration:  2730
 C         3.903381         1.795987         2.482712
 C         3.110557         0.912707         1.673004
 O         3.456967        -0.485773         1.489581
 C         2.540289        -0.368068         0.309909
 C         2.564719         1.207592         0.317428
 C         1.633280         0.999248         1.591150
 C         1.111236        -0.292907         0.865882
 C         0.144486         0.073787        -0.206358
 O         0.595083        -1.402709         1.507421
 H         3.917197         1.418957         3.533668
 H         4.846863         2.015658         1.995122
 H         3.514620         2.807565         2.537442
 H         2.954794        -0.899663        -0.591907
 H         2.671330         1.945206        -0.479640
 H         1.056305         1.868294         2.027065
 H         0.524326         0.649433        -0.932165
 H        -0.087962        -0.825478        -0.784277
 H        -0.918280         0.402990         0.095173
 H         1.006258        -1.385674         2.332111
