19
Iteration:  1272
 C         3.738946         1.481244         2.821967
 C         3.104713         0.821306         1.628215
 O         3.398624        -0.566737         1.236790
 C         2.530260        -0.294530         0.097917
 C         2.792177         1.289732         0.236343
 C         1.606084         1.206225         1.274807
 C         1.032889        -0.160315         0.874692
 C        -0.070085        -0.284585        -0.136935
 O         0.851809        -1.020346         1.854481
 H         3.113396         1.442917         3.749382
 H         4.864751         1.267865         2.958748
 H         3.705612         2.533554         2.593499
 H         2.585068        -1.143798        -0.684852
 H         3.392655         2.121236        -0.140443
 H         1.183830         2.066112         1.742686
 H        -1.076271        -0.264087         0.275883
 H         0.050981         0.645759        -0.938321
 H         0.063069        -1.264418        -0.882664
 H         1.706024        -0.983411         2.383087
