19
Iteration:  3907charge 0 multiplicity 1
 C         3.911008         1.713242         2.686175
 C         3.017844         0.854401         1.758941
 O         3.443039        -0.450681         1.359963
 C         2.548529        -0.239967         0.177904
 C         2.577271         1.302900         0.306952
 C         1.561625         1.061144         1.428457
 C         1.102987        -0.251519         0.844133
 C         0.155642        -0.236477        -0.319488
 O         0.684217        -1.270234         1.734268
 H         4.122475         1.015090         3.409680
 H         4.779344         2.141925         2.200224
 H         3.315819         2.538968         3.027034
 H         2.730650        -0.854226        -0.733149
 H         2.617509         2.182928        -0.423771
 H         0.964843         1.767731         1.955999
 H         0.699759         0.332537        -0.963526
 H         0.026546        -1.209302        -0.742364
 H        -0.850899         0.239924        -0.048320
 H         1.470963        -1.333114         2.302622
