19
Iteration:  2867charge 0 multiplicity 1
 C         3.725494         1.424935         2.967178
 C         3.130320         0.919709         1.623213
 O         3.436295        -0.501752         1.255017
 C         2.624982        -0.219401         0.144667
 C         2.739361         1.293751         0.169452
 C         1.561372         1.214908         1.148787
 C         1.140507        -0.150615         0.777437
 C        -0.099640        -0.257572        -0.147838
 O         0.837756        -1.185822         1.894999
 H         3.536816         0.507173         3.504476
 H         4.754352         1.706873         2.789182
 H         3.235342         2.339087         3.404361
 H         2.766014        -0.953829        -0.680072
 H         2.851135         2.147661        -0.501113
 H         1.017405         2.061875         1.308570
 H        -0.041615         0.492745        -1.034099
 H        -0.352421        -1.319991        -0.329465
 H        -0.946458         0.041825         0.390460
 H         1.352021        -0.992238         2.631966
