19
Iteration:  2501charge 0 multiplicity 1
 C         4.004071         1.885688         2.563382
 C         3.166063         0.937294         1.712856
 O         3.438855        -0.575322         1.379697
 C         2.516404        -0.305039         0.330661
 C         2.506460         1.256600         0.420054
 C         1.537867         1.074014         1.584807
 C         1.091762        -0.291119         0.857579
 C         0.158778        -0.066251        -0.396691
 O         0.591185        -1.406087         1.576573
 H         4.408087         1.266518         3.365324
 H         4.833136         2.049441         1.962956
 H         3.551354         2.730197         3.032121
 H         2.731555        -1.021304        -0.533754
 H         2.798486         2.075611        -0.315236
 H         0.937433         1.803751         2.174700
 H         0.315157         0.790110        -0.930022
 H         0.420914        -0.837516        -1.132013
 H        -0.955552        -0.071353        -0.091863
 H         1.110539        -1.253518         2.383154
