19
Iteration:  4107charge 0 multiplicity 1
 C         3.906714         1.822567         2.649310
 C         3.035178         0.939351         1.698836
 O         3.417684        -0.500632         1.461204
 C         2.573378        -0.303325         0.323906
 C         2.669723         1.286220         0.367728
 C         1.462595         1.029238         1.495779
 C         1.149183        -0.215106         0.752635
 C         0.025148        -0.163753        -0.347626
 O         0.755201        -1.362292         1.588678
 H         4.506269         1.145709         3.330765
 H         4.596818         2.122626         1.902068
 H         3.277212         2.530775         3.207627
 H         2.800917        -0.895781        -0.559610
 H         2.848827         2.099594        -0.383158
 H         0.966273         1.882860         1.972998
 H         0.043921         0.807489        -1.074489
 H         0.044122        -1.229273        -0.705259
 H        -0.889426        -0.059709         0.285663
 H         1.589180        -1.609225         2.026686
