19
Iteration:  4605
 C         3.695178         1.649288         2.813429
 C         3.091302         0.850930         1.699279
 O         3.442211        -0.536932         1.401800
 C         2.610301        -0.291137         0.164205
 C         2.783927         1.237870         0.302760
 C         1.571861         1.157286         1.147106
 C         1.129911        -0.189689         0.738606
 C        -0.022455        -0.228664        -0.208125
 O         0.759424        -1.143928         1.794526
 H         4.432817         2.340068         2.493015
 H         2.837679         2.144158         3.188471
 H         4.182399         0.941139         3.535250
 H         2.834746        -1.034712        -0.625677
 H         3.220549         2.031418        -0.243556
 H         0.989912         1.987142         1.626889
 H         0.123971         0.439363        -1.155883
 H        -0.080181        -1.244237        -0.541272
 H        -1.067275        -0.121123         0.239063
 H         1.399060        -1.083971         2.538360
