19
Iteration:  2018charge 0 multiplicity 1
 C         3.922652         1.635272         2.618453
 C         3.078644         0.871367         1.676703
 O         3.383856        -0.467808         1.487594
 C         2.506543        -0.328219         0.208650
 C         2.560270         1.248956         0.314304
 C         1.560596         1.117774         1.429941
 C         1.096798        -0.199566         0.840767
 C        -0.003142        -0.083570        -0.256307
 O         0.840983        -1.295231         1.607822
 H         3.752541         1.296061         3.647535
 H         5.019874         1.418500         2.449462
 H         3.861616         2.694223         2.549559
 H         2.860701        -0.995036        -0.620474
 H         2.821629         2.088670        -0.323720
 H         0.974017         1.819819         2.149739
 H         0.176072         0.867782        -0.795221
 H         0.027844        -0.960021        -0.929943
 H        -0.919751         0.019200         0.196061
 H         1.571256        -1.452678         2.245135
