19
Iteration:   177charge 0 multiplicity 1
 C         3.948051         1.487101         2.829145
 C         3.049468         0.989365         1.617766
 O         3.290482        -0.507514         1.433481
 C         2.560587        -0.365713         0.258310
 C         2.757700         1.228674         0.132559
 C         1.576640         1.250550         1.146001
 C         1.105877        -0.215839         0.767761
 C        -0.078105        -0.177916        -0.134380
 O         0.810902        -1.158307         1.815323
 H         3.570482         1.001988         3.698074
 H         5.102614         1.417415         2.481073
 H         3.941537         2.564079         2.928518
 H         2.571767        -1.101690        -0.547369
 H         2.999745         1.873030        -0.735669
 H         1.064276         2.249967         1.521153
 H        -0.053020        -0.751389        -1.110605
 H        -0.815932        -0.772603         0.489490
 H        -0.403844         0.833844        -0.284334
 H         1.770118        -1.277307         2.259156
