19
Iteration:  4663charge 0 multiplicity 1
 C         3.813659         1.550033         2.827654
 C         3.018567         1.000893         1.651178
 O         3.380221        -0.464746         1.467427
 C         2.592419        -0.312518         0.275148
 C         2.726250         1.151677         0.193014
 C         1.522445         1.286912         1.180678
 C         1.105376        -0.246646         0.776909
 C         0.056403        -0.249260        -0.278923
 O         0.778772        -1.208660         1.793897
 H         3.845522         2.651627         2.892217
 H         3.416166         1.246258         3.760922
 H         4.785177         1.205031         2.877785
 H         2.739359        -1.109863        -0.452610
 H         3.077774         1.853581        -0.620724
 H         0.996244         2.187434         1.460801
 H         0.400839         0.508658        -1.121770
 H         0.014060        -1.209938        -0.866517
 H        -0.895048         0.105203         0.043738
 H         1.467275        -1.099941         2.425645
