19
Iteration:   218charge 0 multiplicity 1
 C         3.847873         1.667636         2.674719
 C         3.108542         0.892777         1.628464
 O         3.430702        -0.619445         1.259314
 C         2.502801        -0.323361         0.236763
 C         2.642450         1.205232         0.285218
 C         1.642117         1.116741         1.417711
 C         1.133220        -0.248686         0.807427
 C         0.057110        -0.134182        -0.215028
 O         0.698640        -1.103825         1.821382
 H         3.441215         1.475165         3.720719
 H         4.949776         1.516041         2.649660
 H         3.483979         2.667320         2.509223
 H         2.738516        -0.938038        -0.572220
 H         2.795331         2.028894        -0.451296
 H         1.089882         1.921575         1.873886
 H        -0.192898        -1.192399        -0.515872
 H        -0.781893         0.391408         0.266716
 H         0.204857         0.561934        -1.129875
 H         1.409636        -1.243570         2.417943
