19
Iteration:   763
 C         3.833593         1.783339         2.539343
 C         3.122589         0.866644         1.691410
 O         3.538330        -0.573700         1.346682
 C         2.549548        -0.288959         0.254831
 C         2.619020         1.158313         0.293464
 C         1.602117         1.061359         1.589605
 C         1.108399        -0.262304         0.868125
 C         0.106787        -0.012819        -0.290038
 O         0.551602        -1.281479         1.679814
 H         3.721237         1.567750         3.641666
 H         4.869939         1.920632         2.207669
 H         3.503097         2.775549         2.397868
 H         2.742176        -1.124403        -0.547667
 H         3.051373         1.974045        -0.335584
 H         0.978027         1.703975         2.127426
 H        -0.687335         0.640539         0.145367
 H         0.695925         0.526120        -1.112774
 H        -0.440619        -0.825969        -0.698633
 H         1.235528        -1.418200         2.475620
