19
Iteration:   359
 C         3.776744         1.525006         2.755620
 C         3.142457         0.807466         1.579429
 O         3.500258        -0.485268         1.292960
 C         2.571931        -0.237274         0.129212
 C         2.648127         1.267748         0.257702
 C         1.576600         1.122640         1.314866
 C         1.089643        -0.220911         0.866360
 C        -0.062194        -0.138170        -0.193654
 O         0.781961        -1.160620         1.870086
 H         3.321385         1.207038         3.908727
 H         4.877981         1.314971         2.644025
 H         3.430488         2.607309         2.742513
 H         2.810581        -0.817617        -0.722113
 H         2.908805         1.994858        -0.489342
 H         0.984824         1.964958         1.937964
 H        -0.695361         0.785689        -0.112405
 H         0.334318        -0.168831        -1.220542
 H        -0.584257        -1.119765        -0.244858
 H         1.596605        -1.216917         2.516025
