19
Iteration:  4039
 C         3.858563         1.679185         2.680036
 C         3.079673         0.984385         1.681478
 O         3.522588        -0.362604         1.383681
 C         2.615712        -0.278111         0.221022
 C         2.493420         1.238610         0.346537
 C         1.526571         1.002394         1.564765
 C         1.129087        -0.267261         0.830330
 C         0.125275        -0.114519        -0.297520
 O         0.683635        -1.371970         1.606421
 H         3.572555         1.692693         3.687498
 H         4.865968         1.298896         2.609070
 H         3.786337         2.716228         2.286759
 H         2.904715        -0.974429        -0.599806
 H         2.622428         2.039155        -0.338358
 H         0.960426         1.960572         1.844534
 H         0.261355         0.416934        -1.209053
 H        -0.104641        -1.153423        -0.578692
 H        -1.047025         0.092595        -0.044675
 H         1.356773        -1.537991         2.269202
