19
Iteration:  1772
 C         3.878325         1.558597         2.727645
 C         3.063693         0.857097         1.687178
 O         3.333002        -0.512853         1.397913
 C         2.522587        -0.276924         0.199981
 C         2.663637         1.249131         0.300642
 C         1.628878         1.150773         1.411359
 C         1.116748        -0.161352         0.740464
 C        -0.039759        -0.225247        -0.241494
 O         0.829628        -1.144090         1.686209
 H         3.915198         1.088691         3.688510
 H         4.904142         1.411530         2.422751
 H         3.573052         2.629755         2.845075
 H         2.811540        -0.876162        -0.623296
 H         3.086789         1.985342        -0.399020
 H         0.915348         1.939070         1.938097
 H        -0.139703         0.777248        -0.734625
 H         0.006256        -1.016454        -0.922357
 H        -0.908723        -0.258803         0.427697
 H         1.637753        -1.257745         2.184832
