19
Iteration:  1127charge 0 multiplicity 1
 C         3.944771         1.690992         2.637340
 C         3.118317         0.979602         1.651404
 O         3.420741        -0.445437         1.401379
 C         2.566785        -0.413271         0.229004
 C         2.643592         1.250442         0.268985
 C         1.654976         0.992624         1.424749
 C         1.071618        -0.252218         0.874920
 C         0.052526        -0.055696        -0.258165
 O         0.618051        -1.271930         1.689014
 H         3.702394         1.243689         3.579875
 H         4.968287         1.489198         2.317019
 H         3.832616         2.745822         2.894851
 H         2.854033        -1.023879        -0.563194
 H         2.611838         2.029368        -0.433408
 H         0.963649         1.726010         1.963481
 H        -0.819434         0.564438         0.040609
 H         0.317454         0.373117        -1.204359
 H        -0.208238        -1.103626        -0.537977
 H         0.941415        -1.143962         2.641909
