19
Iteration:  2215
 C         3.780592         1.482120         2.856325
 C         3.028917         0.899247         1.678353
 O         3.420651        -0.455090         1.271907
 C         2.614000        -0.303509         0.103037
 C         2.721699         1.281696         0.226445
 C         1.573729         1.105473         1.333635
 C         1.091726        -0.237855         0.773215
 C        -0.050631        -0.227974        -0.219865
 O         0.796751        -1.068405         1.877043
 H         3.326446         1.469678         3.790322
 H         4.768020         1.022829         2.840162
 H         3.944869         2.569672         2.646815
 H         2.721242        -0.988953        -0.709183
 H         2.877251         2.142606        -0.548377
 H         1.120356         1.888974         1.863071
 H         0.491566         0.450545        -0.975992
 H        -0.113446        -1.198120        -0.666223
 H        -0.984385         0.043762         0.038229
 H         1.663035        -1.275107         2.409107
