19
Iteration:   831charge 0 multiplicity 1
 C         3.856356         1.424081         2.771569
 C         3.027690         0.868061         1.684662
 O         3.234013        -0.501544         1.436683
 C         2.549763        -0.302927         0.196115
 C         2.773322         1.328874         0.186587
 C         1.601795         1.260217         1.203808
 C         1.145561        -0.152710         0.782696
 C        -0.056034        -0.288057        -0.184964
 O         0.896507        -1.117524         1.791663
 H         3.750209         0.904210         3.773456
 H         4.860448         1.451180         2.407004
 H         3.687338         2.536429         2.954832
 H         2.758003        -1.030015        -0.591870
 H         3.019077         2.042604        -0.575084
 H         1.062371         2.174984         1.705595
 H        -1.019972        -0.168912         0.475098
 H        -0.049459         0.505013        -0.992001
 H        -0.157698        -1.184437        -0.720701
 H         1.634298        -1.236604         2.310099
