19
Iteration:  4945
 C         3.924857         1.835982         2.497561
 C         3.079068         0.924331         1.764657
 O         3.407921        -0.504893         1.664584
 C         2.572551        -0.449301         0.382642
 C         2.746062         1.109631         0.286512
 C         1.561970         1.151725         1.336045
 C         1.062196        -0.286727         0.828782
 C         0.112530        -0.025907        -0.377841
 O         0.553409        -1.326147         1.579502
 H         3.537070         2.065851         3.585256
 H         4.969169         1.440971         2.579536
 H         3.967909         2.778725         1.955137
 H         2.928786        -1.257068        -0.280389
 H         3.146409         1.818049        -0.495525
 H         0.968989         2.065512         1.653108
 H         0.368534         1.080081        -0.803377
 H         0.016020        -0.835751        -1.087824
 H        -0.808110         0.205402         0.146154
 H         1.219597        -1.458668         2.316414
