19
Iteration:  4601
 C         3.711785         1.649158         2.803724
 C         3.114453         0.869336         1.717049
 O         3.457759        -0.530607         1.389789
 C         2.590923        -0.305062         0.182511
 C         2.786168         1.256402         0.280975
 C         1.592648         1.161397         1.162062
 C         1.134816        -0.203853         0.765161
 C        -0.025085        -0.226224        -0.274931
 O         0.733875        -1.170053         1.820911
 H         4.490891         2.378999         2.474614
 H         2.737926         2.190427         3.158747
 H         4.070286         0.864722         3.554592
 H         2.721331        -1.110920        -0.539060
 H         3.073383         2.202121        -0.218252
 H         0.959115         1.933511         1.623217
 H         0.178884         0.442287        -1.024412
 H        -0.201485        -1.271242        -0.682620
 H        -1.004218        -0.027923         0.229166
 H         1.461977        -1.070432         2.497280
