19
Iteration:  1138charge 0 multiplicity 1
 C         3.938405         1.727754         2.600379
 C         3.108661         0.915464         1.658964
 O         3.506358        -0.499825         1.401904
 C         2.536615        -0.370507         0.241997
 C         2.601053         1.251973         0.265305
 C         1.596742         1.012976         1.537419
 C         1.142460        -0.275655         0.799492
 C         0.113825        -0.034519        -0.268340
 O         0.537121        -1.285939         1.690884
 H         4.001659         1.304201         3.580104
 H         4.972944         1.772049         2.244892
 H         3.566438         2.775106         2.505968
 H         2.688552        -1.142710        -0.436537
 H         2.551033         2.077100        -0.381453
 H         0.886566         1.782888         2.009906
 H        -0.686208         0.642243         0.066695
 H         0.727419         0.358379        -1.061163
 H        -0.464050        -0.951923        -0.554080
 H         1.021900        -1.048650         2.603279
