19
Iteration:  3226
 C         3.969821         1.759523         2.569449
 C         3.067421         0.916593         1.743437
 O         3.463450        -0.466642         1.420419
 C         2.527977        -0.400282         0.268419
 C         2.580048         1.202917         0.419679
 C         1.498488         1.089092         1.463724
 C         1.062495        -0.237356         0.828389
 C         0.065395        -0.039237        -0.314893
 O         0.734363        -1.364320         1.595930
 H         4.107492         1.333042         3.553502
 H         4.979149         1.931741         2.232858
 H         3.462866         2.723329         2.554628
 H         2.709776        -1.177716        -0.493656
 H         2.842336         2.048294        -0.194207
 H         1.001831         1.952796         1.877778
 H         0.660594         0.536252        -1.159299
 H        -0.234217        -0.863373        -0.982459
 H        -0.720317         0.442293         0.176426
 H         1.178013        -1.400337         2.521531
