19
Iteration:   559
 C         3.971814         1.668137         2.623698
 C         3.070674         0.908640         1.684344
 O         3.272198        -0.533759         1.473110
 C         2.514507        -0.313657         0.193203
 C         2.762388         1.245529         0.294101
 C         1.605699         1.100733         1.448217
 C         1.080482        -0.226973         0.767023
 C        -0.033864        -0.143968        -0.229134
 O         0.767648        -1.224909         1.699399
 H         3.949057         1.482010         3.759681
 H         4.963501         1.694791         2.248732
 H         3.603626         2.648630         2.402530
 H         2.919661        -0.961622        -0.602315
 H         2.901032         1.992420        -0.469734
 H         1.096513         1.844615         1.901957
 H        -0.977960         0.050416         0.268906
 H         0.244575         0.674318        -0.911823
 H        -0.322606        -1.075322        -0.645428
 H         1.733704        -1.342219         2.000338
