19
Iteration:   382charge 0 multiplicity 1
 C         3.808410         1.523139         2.873106
 C         3.084557         1.008098         1.622857
 O         3.412129        -0.461382         1.231199
 C         2.507582        -0.370903         0.169630
 C         2.633267         1.246523         0.182890
 C         1.705231         1.097554         1.304051
 C         1.150831        -0.187639         0.806487
 C        -0.068852        -0.188637        -0.145298
 O         0.838533        -1.113057         1.803556
 H         3.089870         0.989614         3.807683
 H         4.819258         1.043470         2.928026
 H         3.611104         2.569771         3.169658
 H         2.677178        -1.147525        -0.565882
 H         2.963075         2.034744        -0.434762
 H         1.025235         1.971734         1.656058
 H        -0.795238         0.663618         0.080103
 H         0.048394        -0.272342        -1.261458
 H        -0.480316        -1.174579         0.091712
 H         1.601628        -1.280374         2.283772
