19
Iteration:  4546charge 0 multiplicity 1
 C         3.927851         1.707345         2.620461
 C         3.029181         1.043756         1.710066
 O         3.384384        -0.403480         1.445144
 C         2.584341        -0.358895         0.322613
 C         2.636261         1.253901         0.353680
 C         1.524391         1.134783         1.368775
 C         1.097914        -0.349996         0.802919
 C         0.124698        -0.141166        -0.333531
 O         0.648501        -1.377097         1.670341
 H         4.922145         1.162013         2.402830
 H         4.121769         2.828752         2.310771
 H         3.594082         1.653293         3.709684
 H         2.859651        -1.191927        -0.337181
 H         3.007546         2.091052        -0.324145
 H         1.092645         1.946743         1.907544
 H         0.626782         0.441347        -1.045997
 H         0.090554        -1.167426        -0.827316
 H        -0.821648         0.353395        -0.094647
 H         1.288877        -1.372556         2.399412
