19
Iteration:  1448charge 0 multiplicity 1
 C         3.940046         1.599932         2.643424
 C         3.097175         0.902701         1.663449
 O         3.457746        -0.416545         1.337219
 C         2.525697        -0.379597         0.192675
 C         2.656914         1.160292         0.316176
 C         1.594070         1.180695         1.377205
 C         1.123828        -0.249367         0.903265
 C         0.013588        -0.085384        -0.300585
 O         0.602004        -1.229816         1.801021
 H         3.635144         1.583940         3.728865
 H         4.902079         1.087972         2.685898
 H         4.037419         2.740037         2.490099
 H         2.774566        -1.159903        -0.517945
 H         2.863050         1.900942        -0.525889
 H         1.108799         2.053935         1.832514
 H        -0.892518        -0.531049        -0.027792
 H        -0.376961         0.997033        -0.465850
 H         0.511011        -0.588463        -1.187974
 H         1.475450        -1.558235         2.316185
