19
Iteration:   420charge 0 multiplicity 1
 C         3.808027         1.538594         2.727894
 C         3.033860         0.897142         1.658695
 O         3.321212        -0.512686         1.397300
 C         2.550734        -0.309293         0.177685
 C         2.754203         1.234091         0.230666
 C         1.572125         1.198949         1.282295
 C         1.105093        -0.211874         0.767198
 C        -0.128999        -0.140421        -0.155442
 O         0.945887        -1.162991         1.793071
 H         3.678546         1.027895         3.638185
 H         4.850303         1.248046         2.501146
 H         3.767660         2.633090         2.818872
 H         2.755325        -1.084908        -0.590573
 H         3.273963         2.046360        -0.317005
 H         1.002739         2.036720         1.658655
 H        -1.035881         0.148121         0.318873
 H         0.107299         0.434922        -1.049569
 H        -0.366610        -1.210699        -0.420040
 H         1.767157        -1.216449         2.212529
