19
Iteration:  1701
 C         3.692749         1.446676         2.854990
 C         3.103565         0.868966         1.640424
 O         3.482869        -0.486001         1.238490
 C         2.569228        -0.237246         0.076103
 C         2.719444         1.352519         0.270788
 C         1.637587         1.130741         1.304166
 C         1.122098        -0.269097         0.798647
 C        -0.088991        -0.178057        -0.139154
 O         0.790543        -1.100290         1.848504
 H         3.693600         0.837659         3.788532
 H         4.788628         1.578353         2.768829
 H         3.138415         2.390740         3.021579
 H         2.931210        -0.812064        -0.818888
 H         2.950782         2.048084        -0.592506
 H         1.031778         1.737822         1.868745
 H         0.238237        -0.178658        -1.151154
 H        -0.685824        -1.150835        -0.039215
 H        -0.758792         0.687754        -0.025920
 H         1.649697        -1.390136         2.198147
