19
Iteration:   872charge 0 multiplicity 1
 C         3.764991         1.529841         2.750707
 C         3.132646         0.881106         1.659612
 O         3.459247        -0.520533         1.354518
 C         2.545263        -0.371374         0.149544
 C         2.717256         1.281898         0.292002
 C         1.699209         1.226943         1.270632
 C         1.084763        -0.181475         0.757825
 C        -0.105071        -0.224074        -0.244019
 O         0.733639        -1.087504         1.898252
 H         3.522869         1.218960         3.812024
 H         4.828365         1.471980         2.578188
 H         3.385286         2.515053         2.556007
 H         2.780981        -1.212074        -0.687554
 H         3.065640         1.934491        -0.486952
 H         1.189529         1.957206         2.019901
 H        -1.075217        -0.208188         0.319960
 H        -0.119660         0.788057        -0.820379
 H         0.094347        -0.979777        -0.927927
 H         1.590297        -1.729801         2.045155
