19
Iteration:   487
 C         3.983857         1.750216         2.600448
 C         3.142895         0.988829         1.624833
 O         3.479633        -0.478341         1.378609
 C         2.554534        -0.419809         0.339792
 C         2.514524         1.134751         0.305411
 C         1.591519         1.030764         1.478426
 C         1.121053        -0.264024         0.888972
 C         0.126960        -0.006199        -0.254968
 O         0.517822        -1.269079         1.655190
 H         4.048012         1.313883         3.517110
 H         5.027071         1.677766         2.117178
 H         3.822847         2.880685         2.641776
 H         2.808712        -1.073932        -0.468777
 H         2.499170         1.746036        -0.568549
 H         0.976754         2.020394         1.824690
 H        -0.856382        -0.407966         0.003703
 H         0.142690         1.047123        -0.335337
 H         0.323910        -0.512461        -1.281287
 H         1.232865        -1.577080         2.303485
