19
Iteration:  1956
 C         3.589507         1.362372         2.878451
 C         3.102754         0.924292         1.574040
 O         3.468360        -0.443869         1.272368
 C         2.600613        -0.335910         0.104682
 C         2.686759         1.223334         0.210749
 C         1.623741         1.169800         1.281843
 C         1.193224        -0.161644         0.763789
 C        -0.137274        -0.238482        -0.072882
 O         0.929461        -1.007304         1.802136
 H         3.166593         0.616657         3.582608
 H         4.696418         1.054295         2.955546
 H         3.366210         2.447767         3.236107
 H         3.005822        -0.947345        -0.627163
 H         2.836103         2.065550        -0.401703
 H         1.025070         1.931183         1.820706
 H        -0.193453         0.522945        -1.014322
 H        -0.396267        -1.281803        -0.364371
 H        -1.045606         0.273572         0.502048
 H         1.690232        -1.044332         2.304985
