19
Iteration:  1092charge 0 multiplicity 1
 C         3.891489         1.555465         2.754170
 C         3.040324         0.947147         1.664629
 O         3.345422        -0.521104         1.414579
 C         2.498879        -0.356957         0.231328
 C         2.744169         1.268921         0.261825
 C         1.591553         1.206458         1.209368
 C         1.091335        -0.170142         0.823540
 C        -0.063584        -0.184423        -0.211377
 O         0.839808        -1.173479         1.766717
 H         3.578427         1.082890         3.696249
 H         4.869654         1.231674         2.582244
 H         3.905746         2.685783         2.779778
 H         2.766789        -1.043193        -0.565357
 H         3.022906         2.065661        -0.506857
 H         1.075624         2.002427         1.648856
 H        -1.044358        -0.219649         0.388077
 H         0.031942         0.600102        -0.934558
 H        -0.072058        -1.123288        -0.681109
 H         1.784227        -1.625595         1.977630
