19
Iteration:  4165charge 0 multiplicity 1
 C         3.599478         1.504351         2.888763
 C         3.065519         0.947246         1.594163
 O         3.474395        -0.405146         1.396879
 C         2.582097        -0.360242         0.165981
 C         2.611650         1.238189         0.190309
 C         1.542590         1.148635         1.266193
 C         1.148769        -0.248332         0.739152
 C        -0.028621        -0.198275        -0.129678
 O         0.965799        -1.126258         1.768685
 H         3.565359         0.574693         3.573314
 H         4.673980         1.912890         2.834937
 H         3.050066         2.389776         3.275755
 H         2.956314        -1.000674        -0.641551
 H         2.988306         1.997289        -0.483104
 H         1.158298         2.064741         1.681302
 H         0.070072         0.576396        -0.943999
 H        -0.128447        -1.045781        -0.864406
 H        -1.004361        -0.095786         0.342887
 H         1.791489        -1.507865         2.081191
