19
Iteration:   591charge 0 multiplicity 1
 C         3.815183         1.441640         2.823460
 C         3.120245         1.029506         1.597149
 O         3.408248        -0.463825         1.375983
 C         2.489833        -0.365660         0.207539
 C         2.677221         1.267497         0.166589
 C         1.534655         1.156418         1.214933
 C         1.076201        -0.220445         0.769769
 C        -0.052619        -0.144785        -0.098769
 O         0.868067        -1.170074         1.788665
 H         3.515545         0.982980         3.853105
 H         4.861627         1.284734         2.735276
 H         3.696270         2.481059         2.944770
 H         2.877325        -1.112438        -0.515342
 H         3.206977         1.942100        -0.494238
 H         0.994147         1.862949         1.652376
 H        -0.743143         0.650121         0.334085
 H         0.231664         0.251497        -1.163120
 H        -0.376137        -1.155623        -0.261866
 H         1.798947        -1.274808         2.193489
