19
Iteration:  2120charge 0 multiplicity 1
 C         3.807908         1.655899         2.688689
 C         3.056670         0.921384         1.687167
 O         3.468537        -0.483962         1.380765
 C         2.633003        -0.330775         0.122543
 C         2.642664         1.147887         0.311412
 C         1.536382         1.073928         1.401712
 C         1.173875        -0.269724         0.791883
 C         0.038325         0.009215        -0.262307
 O         0.700510        -1.276615         1.776417
 H         3.903537         1.185639         3.708720
 H         4.822032         1.911381         2.314117
 H         3.272210         2.687243         2.890605
 H         2.837993        -1.032724        -0.647366
 H         2.845689         1.990287        -0.445793
 H         1.005082         1.834207         1.831011
 H         0.342332         0.839865        -0.961255
 H        -0.363933        -0.903227        -0.734839
 H        -0.966731         0.316179         0.261160
 H         1.349549        -1.425547         2.460624
