19
Iteration:  1434
 C         3.982140         1.662952         2.639791
 C         3.183118         0.966805         1.569487
 O         3.496643        -0.479582         1.400075
 C         2.499796        -0.384049         0.347714
 C         2.580757         1.224836         0.213078
 C         1.611503         1.078564         1.444905
 C         1.055723        -0.220389         0.890819
 C         0.095153        -0.049038        -0.274762
 O         0.557381        -1.293163         1.719097
 H         3.457985         1.462256         3.590931
 H         5.079457         1.263858         2.620467
 H         4.057202         2.695866         2.443975
 H         2.647327        -1.100929        -0.559279
 H         2.649016         2.002705        -0.544826
 H         1.055186         1.801510         1.903995
 H        -0.961239        -0.511253         0.023019
 H        -0.084777         1.016325        -0.499860
 H         0.431491        -0.483076        -1.210270
 H         1.119614        -1.407201         2.440508
