19
Iteration:  2767charge 0 multiplicity 1
 C         4.054286         1.828197         2.563839
 C         3.127679         0.997137         1.735988
 O         3.531305        -0.445885         1.485117
 C         2.589100        -0.329879         0.317655
 C         2.563528         1.177380         0.336235
 C         1.554188         0.991598         1.483774
 C         1.020582        -0.315667         0.764948
 C        -0.008839        -0.011475        -0.210336
 O         0.557863        -1.400774         1.540634
 H         3.793950         1.567736         3.584747
 H         5.111374         1.455726         2.517029
 H         3.891082         2.907384         2.404906
 H         2.827507        -1.008063        -0.468486
 H         2.877515         1.815892        -0.506644
 H         0.861200         1.835047         1.802002
 H         0.504779         0.885725        -0.829213
 H        -0.189559        -0.937556        -0.777652
 H        -0.871677         0.418839         0.171913
 H         1.370156        -1.713873         1.873629
