19
Iteration:  2086
 C         3.937148         1.823028         2.567940
 C         3.138618         0.893838         1.722147
 O         3.502726        -0.434766         1.395668
 C         2.525407        -0.378376         0.229623
 C         2.577229         1.167944         0.371772
 C         1.620322         1.018734         1.634787
 C         1.112294        -0.238323         0.913653
 C         0.105675        -0.019877        -0.357874
 O         0.540112        -1.368123         1.555040
 H         4.318452         1.441303         3.508416
 H         4.822560         2.131386         1.939022
 H         3.293280         2.792862         2.682873
 H         2.573318        -1.079701        -0.545168
 H         2.613408         1.973112        -0.370919
 H         1.143654         1.682517         2.308240
 H         0.534389         0.546626        -1.290164
 H        -0.121845        -1.017846        -0.703755
 H        -0.765116         0.536803         0.003747
 H         1.115374        -1.637038         2.359361
