19
Iteration:  2495charge 0 multiplicity 1
 C         3.976503         1.835079         2.566700
 C         3.147279         0.947014         1.730232
 O         3.448916        -0.536859         1.376049
 C         2.508344        -0.342555         0.296201
 C         2.557599         1.271115         0.363899
 C         1.524990         0.996318         1.593814
 C         1.094320        -0.195836         0.856055
 C         0.144827        -0.075837        -0.381818
 O         0.601055        -1.381739         1.596776
 H         4.240131         1.280003         3.510970
 H         4.942241         2.171219         1.989826
 H         3.527342         2.757081         3.030623
 H         2.652809        -1.075209        -0.454868
 H         2.762167         2.067372        -0.328200
 H         1.058539         1.759616         2.169722
 H         0.375011         0.909773        -0.986910
 H         0.357743        -0.928403        -1.048302
 H        -0.857458        -0.228515        -0.048822
 H         1.104424        -1.512043         2.385317
