19
Iteration:  1811
 C         3.953804         1.811116         2.592144
 C         3.122577         0.897110         1.712365
 O         3.458280        -0.477608         1.395709
 C         2.544661        -0.318362         0.281300
 C         2.597454         1.173784         0.322777
 C         1.594875         1.048508         1.483649
 C         1.097688        -0.336839         0.835862
 C         0.106447         0.076176        -0.254481
 O         0.550601        -1.401098         1.638651
 H         3.770908         1.646275         3.699504
 H         5.080026         1.621910         2.381542
 H         3.823083         2.797947         2.188003
 H         2.687203        -1.028743        -0.595117
 H         2.953611         1.920041        -0.319140
 H         1.228414         1.907428         1.940611
 H        -0.039204         1.205932        -0.281323
 H         0.172386        -0.431955        -1.362947
 H        -0.872570        -0.234524         0.117173
 H         1.252943        -1.837993         2.087571
