19
Iteration:  3378
 C         3.867608         1.734014         2.648246
 C         3.045695         0.941460         1.693976
 O         3.401345        -0.430591         1.404694
 C         2.607076        -0.267683         0.188488
 C         2.622139         1.246385         0.316088
 C         1.587290         1.035449         1.477248
 C         1.131313        -0.351810         0.837494
 C         0.124293        -0.076318        -0.199792
 O         0.670079        -1.360258         1.612325
 H         3.516742         1.587101         3.694028
 H         4.902615         1.470130         2.372124
 H         3.782670         2.811894         2.523711
 H         2.864115        -0.908801        -0.652875
 H         2.699366         2.146763        -0.417057
 H         0.984851         1.870285         1.676896
 H         0.478426         0.646476        -1.002522
 H        -0.169239        -1.107137        -0.474597
 H        -0.827354         0.340486         0.143585
 H         1.214236        -1.613069         2.409269
