19
Iteration:  4175
 C         3.584705         1.516985         2.924754
 C         3.035590         0.941447         1.643303
 O         3.436905        -0.443790         1.330861
 C         2.583855        -0.255686         0.119792
 C         2.697251         1.272872         0.150747
 C         1.621771         1.164241         1.268824
 C         1.124540        -0.225939         0.766741
 C        -0.055353        -0.302093        -0.222451
 O         0.939294        -1.164384         1.851656
 H         3.468534         0.832802         3.835351
 H         4.668316         1.526426         2.742722
 H         3.254869         2.454646         3.353652
 H         2.964601        -0.936818        -0.637461
 H         2.860118         2.050387        -0.569676
 H         1.037660         1.956916         1.650509
 H         0.163984         0.681384        -0.790268
 H        -0.235798        -1.279213        -0.736796
 H        -0.798793         0.058678         0.424182
 H         1.908827        -1.217253         2.067776
