19
Iteration:  2951charge 0 multiplicity 1
 C         4.024332         1.756684         2.504022
 C         3.103462         0.941248         1.701563
 O         3.445022        -0.474934         1.546384
 C         2.531473        -0.337368         0.240517
 C         2.481824         1.221692         0.375562
 C         1.564276         1.064689         1.564816
 C         1.115468        -0.290731         0.767965
 C         0.017300        -0.040053        -0.270254
 O         0.705778        -1.361970         1.532713
 H         3.791196         1.561334         3.546720
 H         5.067886         1.315602         2.420843
 H         3.935580         2.869863         2.436188
 H         2.933732        -1.045792        -0.498933
 H         2.455676         2.128520        -0.218298
 H         0.990198         1.872354         1.864784
 H         0.313433         0.899719        -0.928535
 H         0.200515        -0.851376        -0.954242
 H        -0.968022         0.046077         0.146583
 H         1.221291        -1.472507         2.396231
