19
Iteration:  1659charge 0 multiplicity 1
 C         3.910706         1.662608         2.657558
 C         3.088568         0.865142         1.667668
 O         3.372114        -0.506567         1.447329
 C         2.528076        -0.272070         0.194952
 C         2.590001         1.243362         0.300708
 C         1.569090         1.059978         1.472594
 C         1.142799        -0.197409         0.798023
 C        -0.021697        -0.041612        -0.187262
 O         0.823695        -1.310029         1.601420
 H         3.650736         1.458765         3.737927
 H         5.043300         1.487673         2.626110
 H         3.542763         2.666150         2.512523
 H         2.663798        -0.982160        -0.675453
 H         2.675636         2.106923        -0.425583
 H         1.202142         1.770924         2.078574
 H         0.335583         0.416565        -1.170760
 H        -0.488885        -0.929301        -0.572385
 H        -0.720578         0.622681         0.286897
 H         1.687044        -1.662526         2.056300
