19
Iteration:  4999
 C         3.913796         1.792913         2.644808
 C         3.072703         0.948710         1.710179
 O         3.480649        -0.447418         1.429348
 C         2.658929        -0.407563         0.305334
 C         2.669521         1.181346         0.323066
 C         1.547667         1.030223         1.374180
 C         1.064730        -0.259682         0.831055
 C         0.175962        -0.163815        -0.427317
 O         0.428734        -1.173640         1.766340
 H         3.343532         2.612233         3.153686
 H         4.276536         1.142027         3.444387
 H         4.757108         2.137479         2.104448
 H         2.893830        -1.136363        -0.487544
 H         3.194263         1.885133        -0.368425
 H         1.006420         1.793897         1.933387
 H         0.371852         0.732404        -1.181164
 H         0.389499        -1.011767        -1.019506
 H        -0.779039        -0.457842        -0.139612
 H         1.159739        -1.487542         2.385309
