19
Iteration:  3541
 C         3.758510         1.603818         2.936454
 C         3.097252         0.910818         1.693081
 O         3.340134        -0.452108         1.303371
 C         2.601578        -0.232437         0.049268
 C         2.727166         1.311323         0.248334
 C         1.623591         1.116324         1.283825
 C         1.147533        -0.256271         0.724258
 C        -0.075563        -0.317347        -0.142103
 O         0.839177        -1.156491         1.809711
 H         2.950969         1.538816         3.763737
 H         4.714213         0.955117         2.899081
 H         3.963324         2.669291         2.988303
 H         2.918831        -0.682835        -0.854550
 H         2.992525         1.840047        -0.590765
 H         0.964627         2.001102         1.581946
 H         0.014195         0.360882        -1.078070
 H        -0.391536        -1.352447        -0.385477
 H        -0.911545         0.061825         0.423493
 H         1.773627        -1.547886         2.009433
