19
Iteration:   748charge 0 multiplicity 1
 C         3.951146         1.897932         2.543119
 C         3.106233         0.832275         1.744224
 O         3.508625        -0.519107         1.364241
 C         2.536993        -0.460729         0.279532
 C         2.601013         1.176656         0.417837
 C         1.588518         0.981725         1.488725
 C         1.088869        -0.252604         0.853361
 C         0.102262         0.082266        -0.288067
 O         0.546141        -1.296930         1.641601
 H         3.947932         1.754845         3.590483
 H         5.027107         1.879270         2.156226
 H         3.465342         2.887558         2.262221
 H         2.742201        -0.879335        -0.673487
 H         2.792373         1.868123        -0.372520
 H         1.093997         1.781555         2.099436
 H        -0.849077         0.488734         0.024438
 H         0.568895         0.624734        -1.073403
 H        -0.236731        -1.049919        -0.553655
 H         1.282501        -1.664252         2.072886
