19
Iteration:  1505charge 0 multiplicity 1
 C         3.826245         1.532067         2.832610
 C         3.053274         0.936467         1.684407
 O         3.316430        -0.563144         1.376156
 C         2.511384        -0.281251         0.166458
 C         2.831332         1.212513         0.196132
 C         1.657086         1.250093         1.196789
 C         1.103909        -0.142520         0.839670
 C        -0.140839        -0.210090        -0.127733
 O         0.862402        -1.157808         1.751143
 H         3.575144         0.943301         3.748107
 H         4.853284         1.515245         2.541400
 H         3.723761         2.686382         2.951915
 H         2.626339        -1.051507        -0.533658
 H         3.301459         1.867572        -0.464297
 H         1.021047         2.146425         1.611579
 H        -1.022331        -0.535250         0.412116
 H        -0.348522         0.664390        -0.834438
 H        -0.092387        -1.048238        -0.915987
 H         1.807986        -1.480062         2.071745
