19
Iteration:  3945charge 0 multiplicity 1
 C         3.773244         1.533106         2.889341
 C         3.087892         1.024564         1.713007
 O         3.437790        -0.430598         1.367657
 C         2.597614        -0.238427         0.128604
 C         2.680718         1.298180         0.241678
 C         1.609658         1.160262         1.204634
 C         1.049625        -0.277843         0.756234
 C        -0.061769        -0.327095        -0.186349
 O         0.831159        -1.210762         1.755339
 H         4.018482         0.870030         3.824269
 H         4.849481         1.784313         2.666245
 H         3.303670         2.419395         3.427396
 H         2.864853        -0.939168        -0.659872
 H         2.772134         2.015419        -0.550201
 H         1.011935         2.016954         1.674337
 H         0.003517         0.597863        -0.938303
 H        -0.184414        -1.285004        -0.738744
 H        -1.014918        -0.272852         0.233174
 H         1.646636        -1.278197         2.209219
