19
Iteration:  3909
 C         3.897040         1.704559         2.689657
 C         3.021660         0.870423         1.751906
 O         3.446901        -0.443963         1.355113
 C         2.558021        -0.244892         0.181803
 C         2.591079         1.302910         0.314216
 C         1.567250         1.060178         1.441311
 C         1.095960        -0.256710         0.834940
 C         0.149086        -0.250299        -0.298548
 O         0.688580        -1.250040         1.727681
 H         4.087241         0.918662         3.405592
 H         4.773874         2.106632         2.136861
 H         3.267211         2.520889         3.056321
 H         2.678089        -0.852978        -0.731931
 H         2.633604         2.113477        -0.403745
 H         0.950543         1.747151         1.939861
 H         0.593944         0.339830        -1.050181
 H         0.037185        -1.219933        -0.744859
 H        -0.804805         0.207167        -0.071384
 H         1.467718        -1.276418         2.245613
