19
Iteration:  4668
 C         3.806737         1.582867         2.796544
 C         2.986159         1.014730         1.649088
 O         3.383558        -0.460650         1.466534
 C         2.566977        -0.376452         0.284789
 C         2.705032         1.200836         0.179409
 C         1.566694         1.229911         1.240969
 C         1.147937        -0.259700         0.777511
 C         0.092688        -0.213096        -0.316724
 O         0.748902        -1.195013         1.784435
 H         3.719030         2.667704         2.943630
 H         3.398650         1.082930         3.788477
 H         4.909112         1.184800         2.709529
 H         2.703640        -1.138255        -0.499075
 H         2.977905         1.858130        -0.591558
 H         1.146344         2.223590         1.546066
 H         0.433245         0.400320        -1.068318
 H         0.091831        -1.223902        -0.777195
 H        -0.920900         0.062516         0.109865
 H         1.367533        -1.037646         2.570129
