19
Iteration:  2938charge 0 multiplicity 1
 C         3.970530         1.729538         2.596884
 C         3.076986         0.927329         1.712379
 O         3.411422        -0.457361         1.456521
 C         2.515972        -0.321211         0.251547
 C         2.614733         1.208179         0.340511
 C         1.531803         1.052285         1.496405
 C         1.043526        -0.229483         0.859529
 C         0.049868        -0.035229        -0.357192
 O         0.769164        -1.403875         1.628891
 H         3.863322         1.515413         3.661847
 H         5.002602         1.576355         2.235065
 H         3.880772         2.764096         2.392156
 H         2.770476        -0.874031        -0.634133
 H         2.888624         1.925524        -0.365064
 H         0.975061         1.831734         2.077575
 H         0.223249         0.823470        -0.898249
 H        -0.185633        -0.923409        -0.884409
 H        -1.017289         0.192527         0.084119
 H         1.481162        -1.303345         2.253069
