19
Iteration:  3940charge 0 multiplicity 1
 C         3.836155         1.570317         2.883921
 C         3.078337         0.954343         1.709667
 O         3.470184        -0.418766         1.380264
 C         2.617096        -0.260451         0.153270
 C         2.625773         1.319703         0.219858
 C         1.597470         1.173493         1.257846
 C         1.068836        -0.248062         0.752506
 C        -0.057838        -0.335703        -0.235390
 O         0.794000        -1.208906         1.751705
 H         3.934596         0.860176         3.669695
 H         4.859207         1.842881         2.678641
 H         3.177513         2.282934         3.357414
 H         2.803854        -0.983949        -0.665531
 H         2.877809         2.116032        -0.521111
 H         0.979173         1.855199         1.750624
 H        -0.069194         0.396837        -0.932767
 H        -0.136308        -1.284665        -0.753817
 H        -1.115352        -0.128383         0.222318
 H         1.691990        -1.256203         2.264824
