19
Iteration:  3889
 C         3.962342         1.771911         2.644803
 C         3.102943         0.971662         1.690938
 O         3.385497        -0.458481         1.371737
 C         2.561801        -0.325710         0.247475
 C         2.520389         1.260225         0.389944
 C         1.494070         1.089847         1.471727
 C         1.094934        -0.335029         0.854551
 C         0.186759        -0.062242        -0.391226
 O         0.691968        -1.415584         1.741869
 H         4.197706         1.282723         3.707022
 H         4.850940         1.941854         1.970135
 H         3.387662         2.742961         2.739818
 H         2.801198        -0.927077        -0.646231
 H         2.816215         2.022313        -0.261497
 H         0.850461         1.830902         1.896024
 H         0.514818         0.537255        -1.331197
 H        -0.040107        -1.044928        -0.871128
 H        -0.738948         0.389459        -0.183345
 H         1.451504        -1.511248         2.357739
