19
Iteration:  1441
 C         3.956618         1.646769         2.638572
 C         3.168956         0.922824         1.612366
 O         3.491777        -0.455803         1.370315
 C         2.499859        -0.384880         0.293699
 C         2.633702         1.214896         0.233541
 C         1.581788         1.117778         1.401982
 C         1.080487        -0.222437         0.941425
 C         0.044808        -0.042855        -0.310998
 O         0.588264        -1.269776         1.755623
 H         3.511602         1.424154         3.604552
 H         4.923642         1.159139         2.631406
 H         4.126755         2.718602         2.458446
 H         2.764817        -1.095120        -0.472393
 H         2.663455         1.972463        -0.511447
 H         0.990170         1.975322         1.955940
 H        -0.826854        -0.682166        -0.016483
 H        -0.076438         0.990126        -0.513014
 H         0.334172        -0.529836        -1.251194
 H         1.127078        -1.612588         2.459080
