19
Iteration:  1871charge 0 multiplicity 1
 C         4.063299         1.770430         2.602893
 C         3.090649         0.903468         1.753241
 O         3.407905        -0.516132         1.426640
 C         2.583050        -0.256536         0.222703
 C         2.658642         1.261773         0.377905
 C         1.540988         1.029508         1.433889
 C         1.074798        -0.281396         0.824746
 C         0.007240        -0.063143        -0.273262
 O         0.593342        -1.374482         1.620546
 H         4.308077         1.582156         3.633364
 H         4.932007         1.644918         1.969865
 H         3.726248         2.863965         2.598362
 H         2.788427        -0.934574        -0.574541
 H         3.031490         2.192080        -0.056480
 H         0.890929         1.924660         1.701476
 H         0.338648         0.810348        -0.782509
 H        -0.021003        -0.817897        -0.961993
 H        -1.002817         0.055886         0.213719
 H         1.172140        -1.716491         2.286393
