19
Iteration:  2004
 C         3.851052         1.616686         2.746665
 C         3.067855         0.902372         1.705160
 O         3.362501        -0.542639         1.332281
 C         2.519563        -0.268950         0.209447
 C         2.683887         1.259341         0.259163
 C         1.607560         1.129284         1.424829
 C         1.112718        -0.186423         0.756243
 C        -0.025295        -0.110107        -0.209223
 O         0.846698        -1.249154         1.738841
 H         3.470553         1.378876         3.785483
 H         4.897221         1.501709         2.713012
 H         3.572359         2.628687         2.517651
 H         2.681739        -1.030074        -0.642321
 H         2.975260         2.007801        -0.547751
 H         0.972598         1.899916         1.886690
 H        -0.143882         0.685650        -0.842418
 H         0.013034        -1.042535        -0.773477
 H        -0.975171        -0.187994         0.369792
 H         1.798572        -1.544622         1.774835
