19
Iteration:  2592charge 0 multiplicity 1
 C         3.692822         1.607633         2.809454
 C         3.152900         0.839963         1.665260
 O         3.391279        -0.521836         1.295648
 C         2.574626        -0.270495         0.111585
 C         2.661103         1.266400         0.255715
 C         1.589723         1.141407         1.373542
 C         1.115318        -0.216576         0.789330
 C        -0.050244        -0.139614        -0.167087
 O         0.902550        -1.224132         1.732385
 H         3.166072         1.460348         3.763407
 H         4.765392         1.373530         2.967135
 H         3.544645         2.662090         2.754358
 H         2.673381        -0.969986        -0.692029
 H         3.086484         1.985095        -0.367923
 H         1.034001         1.939989         1.916409
 H         0.224703         0.578541        -1.043626
 H        -0.286178        -1.098517        -0.631253
 H        -0.822430         0.237477         0.477216
 H         1.499151        -1.246255         2.431025
