19
Iteration:  4837charge 0 multiplicity 1
 C         3.636060         1.530731         2.844736
 C         3.072234         0.864249         1.628680
 O         3.458560        -0.543268         1.332180
 C         2.659766        -0.359626         0.247723
 C         2.796967         1.128812         0.230989
 C         1.646493         1.241755         1.086759
 C         1.059223        -0.143969         0.812539
 C         0.057290        -0.359952        -0.302918
 O         0.628001        -0.886654         1.961159
 H         4.026303         0.741963         3.586597
 H         4.543348         2.057358         2.556648
 H         2.959821         2.131544         3.416267
 H         2.916631        -0.958375        -0.628911
 H         3.198699         1.804944        -0.466745
 H         1.207908         2.170579         1.605903
 H         0.480022         0.220426        -1.112891
 H         0.075323        -1.353847        -0.631253
 H        -0.951392        -0.204907        -0.133891
 H         1.433263        -0.810895         2.618930
