19
Iteration:  2182
 C         3.758458         1.402504         2.866626
 C         3.082243         0.909009         1.654455
 O         3.308333        -0.486743         1.343487
 C         2.552222        -0.290322         0.140277
 C         2.824224         1.347101         0.276190
 C         1.546468         1.247688         1.209622
 C         1.125470        -0.118775         0.744564
 C        -0.130895        -0.406416        -0.135126
 O         0.922930        -1.055649         1.781488
 H         3.234956         1.184304         3.737353
 H         4.741431         0.924887         2.972663
 H         3.969649         2.459557         2.702057
 H         2.689815        -1.053461        -0.610281
 H         3.151883         2.226520        -0.381108
 H         1.114213         2.085769         1.750840
 H        -0.133568         0.354049        -0.991191
 H         0.052839        -1.336032        -0.640174
 H        -1.013119        -0.320294         0.346364
 H         1.808781        -1.190842         2.116864
