19
Iteration:  3693charge 0 multiplicity 1
 C         3.831318         1.690784         2.668308
 C         3.033733         0.889764         1.677840
 O         3.422465        -0.474962         1.461226
 C         2.536907        -0.371804         0.261693
 C         2.650527         1.199251         0.308816
 C         1.532967         1.159671         1.413730
 C         1.091677        -0.258239         0.772035
 C         0.013303        -0.102191        -0.280911
 O         0.864270        -1.227607         1.700397
 H         4.075198         0.943511         3.436997
 H         4.795056         2.037003         2.254687
 H         3.260685         2.499697         3.021533
 H         2.872761        -1.176291        -0.397397
 H         2.856451         1.924274        -0.515326
 H         0.871743         1.938057         1.817867
 H         0.231153         0.688504        -1.135724
 H        -0.192850        -0.984632        -0.951622
 H        -0.997822         0.172356         0.179933
 H         1.771392        -1.553075         1.937316
