19
Iteration:  1377charge 0 multiplicity 1
 C         4.015511         1.797556         2.459492
 C         3.063840         0.835967         1.762264
 O         3.363460        -0.551089         1.493382
 C         2.542881        -0.375797         0.274512
 C         2.645981         1.139996         0.362777
 C         1.604911         1.103954         1.483788
 C         1.126379        -0.236984         0.819590
 C         0.000027        -0.020298        -0.291212
 O         0.653815        -1.271257         1.631072
 H         4.421787         1.472284         3.420292
 H         4.956269         2.042932         1.869275
 H         3.469341         2.721356         2.684118
 H         2.892581        -0.941085        -0.637939
 H         3.092411         1.960007        -0.199146
 H         0.913375         1.962747         1.972454
 H        -0.902630         0.590516         0.250908
 H         0.255882         0.766190        -0.971717
 H        -0.377689        -0.876549        -0.828052
 H         1.416443        -1.750508         2.085844
