19
Iteration:   555charge 0 multiplicity 1
 C         3.974475         1.715287         2.606958
 C         3.102784         0.884551         1.683883
 O         3.264001        -0.536261         1.474225
 C         2.520136        -0.325454         0.205446
 C         2.723947         1.248036         0.335205
 C         1.630458         1.068401         1.433793
 C         1.073644        -0.213409         0.795751
 C        -0.016830        -0.132774        -0.241469
 O         0.756888        -1.227822         1.681477
 H         3.913821         1.485670         3.670116
 H         4.995699         1.662687         2.134981
 H         3.673488         2.768971         2.473248
 H         2.823241        -0.969595        -0.663673
 H         3.020111         1.990318        -0.431235
 H         0.990666         1.849320         1.958948
 H        -1.008113         0.017813         0.321704
 H         0.150389         0.735987        -0.980065
 H        -0.219949        -1.113274        -0.733393
 H         1.632792        -1.407752         2.014814
