19
Iteration:  1040
 C         3.786511         1.528220         2.827028
 C         3.118717         0.890652         1.670674
 O         3.455031        -0.482802         1.273863
 C         2.623962        -0.410452         0.122989
 C         2.785094         1.198639         0.216405
 C         1.601759         1.204963         1.294049
 C         1.042706        -0.148877         0.841678
 C        -0.104895        -0.204941        -0.199785
 O         0.732516        -1.076568         1.862272
 H         3.348484         1.123700         3.705437
 H         4.855492         1.562641         2.775733
 H         3.445862         2.596063         2.820912
 H         2.850988        -1.123342        -0.597509
 H         3.217135         1.910514        -0.521081
 H         1.036003         2.023813         1.618627
 H        -0.981052        -0.382878         0.444271
 H        -0.225969         0.642114        -0.814846
 H         0.054634        -1.033913        -0.939186
 H         1.569277        -1.326472         2.138132
