19
Iteration:  4973charge 0 multiplicity 1
 C         3.931017         1.860261         2.606054
 C         3.149487         0.993065         1.629867
 O         3.459174        -0.435948         1.576571
 C         2.541294        -0.465463         0.340263
 C         2.586080         1.091306         0.231074
 C         1.626433         1.036427         1.471051
 C         1.043522        -0.296725         0.888572
 C         0.304008        -0.027976        -0.386183
 O         0.416476        -1.273895         1.614407
 H         3.346739         2.203668         3.393227
 H         4.632009         1.185439         3.079281
 H         4.541190         2.618552         2.060573
 H         2.908787        -1.255121        -0.303085
 H         2.546505         1.772383        -0.566908
 H         1.078289         1.980670         1.649709
 H         0.517549         0.895325        -0.870333
 H         0.300154        -0.827255        -1.225542
 H        -0.705684        -0.338765         0.048757
 H         1.047843        -1.435341         2.402961
