19
Iteration:  4343
 C         3.831021         1.743149         2.691629
 C         3.034591         0.936254         1.664794
 O         3.432897        -0.444973         1.467690
 C         2.645748        -0.344057         0.269027
 C         2.524635         1.173894         0.225960
 C         1.533418         1.082840         1.416830
 C         1.152042        -0.296368         0.789211
 C         0.047766        -0.039867        -0.286192
 O         0.816541        -1.334862         1.660267
 H         3.270065         1.958074         3.584674
 H         4.675233         1.220898         3.150809
 H         4.241522         2.750813         2.434372
 H         2.927929        -1.029698        -0.532449
 H         2.588070         2.010378        -0.469114
 H         0.928655         1.797151         1.911371
 H         0.151678         0.744494        -0.934589
 H         0.000469        -0.962771        -0.866769
 H        -1.034193        -0.037025         0.114451
 H         1.447508        -1.315675         2.388713
