19
Iteration:  1365charge 0 multiplicity 1
 C         4.021072         1.747093         2.528405
 C         3.080863         0.918382         1.746018
 O         3.292065        -0.597950         1.510522
 C         2.539214        -0.338338         0.252806
 C         2.714783         1.192381         0.314645
 C         1.608237         1.044856         1.465344
 C         1.088959        -0.198236         0.793526
 C         0.008845         0.000471        -0.261560
 O         0.712905        -1.280990         1.635296
 H         4.354724         1.275666         3.451618
 H         4.804561         2.025158         1.823069
 H         3.453011         2.695434         2.774791
 H         2.692076        -1.086448        -0.526406
 H         2.687132         1.996401        -0.465271
 H         0.879632         1.963239         1.826432
 H        -0.932607         0.563453         0.284359
 H         0.354473         0.415880        -1.199388
 H        -0.332518        -1.041250        -0.441228
 H         1.628504        -1.417624         2.160596
