19
Iteration:  1776charge 0 multiplicity 1
 C         3.883769         1.588776         2.707373
 C         3.082922         0.834677         1.695948
 O         3.344316        -0.508655         1.397660
 C         2.555590        -0.262112         0.221901
 C         2.674068         1.227955         0.300736
 C         1.585548         1.095933         1.416594
 C         1.103761        -0.158411         0.753733
 C        -0.036801        -0.176103        -0.231010
 O         0.801777        -1.152564         1.667735
 H         3.905763         1.251916         3.780213
 H         4.900622         1.480587         2.347074
 H         3.669270         2.649361         2.825928
 H         2.749817        -0.909240        -0.670294
 H         3.049904         2.028584        -0.382166
 H         1.066287         1.838492         1.959288
 H        -0.174476         0.697146        -0.789612
 H        -0.012060        -0.997975        -1.115237
 H        -0.903494        -0.376104         0.472775
 H         1.636780        -1.156188         2.226283
