19
Iteration:  3193charge 0 multiplicity 1
 C         4.029873         1.825804         2.525505
 C         3.120923         1.017620         1.720841
 O         3.304763        -0.451603         1.577800
 C         2.616805        -0.329165         0.225857
 C         2.578696         1.160941         0.360882
 C         1.576588         1.035593         1.524221
 C         1.160797        -0.311761         0.767597
 C         0.033601        -0.065985        -0.241171
 O         0.626032        -1.410037         1.520784
 H         3.905609         1.678119         3.578721
 H         5.039874         1.641556         2.176117
 H         3.832973         2.898829         2.374088
 H         2.841854        -0.992492        -0.621988
 H         2.856210         1.958290        -0.226557
 H         1.022470         1.816415         2.095592
 H         0.339337         1.003135        -0.583432
 H        -0.322349        -0.864773        -0.894142
 H        -0.755588         0.304349         0.259585
 H         1.346952        -1.928199         1.749531
