19
Iteration:  2557charge 0 multiplicity 1
 C         3.987429         1.709305         2.670057
 C         3.058594         0.910455         1.704194
 O         3.418344        -0.416413         1.481581
 C         2.604733        -0.271162         0.224166
 C         2.530555         1.207020         0.328611
 C         1.530041         1.093699         1.436507
 C         1.134273        -0.271046         0.821658
 C         0.040772        -0.069696        -0.250712
 O         0.710776        -1.367467         1.586085
 H         4.038915         1.122805         3.596938
 H         4.994058         1.775702         2.322340
 H         3.593707         2.686782         2.739768
 H         2.872397        -1.098358        -0.489112
 H         2.711221         1.890770        -0.507959
 H         1.002532         1.945510         1.708759
 H         0.232373         0.701626        -0.938182
 H        -0.302215        -0.973728        -0.748862
 H        -0.923654         0.317771         0.270336
 H         1.491183        -1.796363         1.839522
