19
Iteration:  2336
 C         3.981117         1.648591         2.693929
 C         3.122317         0.979597         1.671117
 O         3.391225        -0.465315         1.406982
 C         2.568692        -0.287874         0.228579
 C         2.551513         1.190160         0.273784
 C         1.596009         1.117283         1.361617
 C         1.041525        -0.255544         0.915543
 C         0.097677        -0.072174        -0.313328
 O         0.644511        -1.318221         1.729821
 H         4.181575         1.072192         3.558479
 H         4.856486         1.973610         2.208662
 H         3.383671         2.490333         3.128795
 H         2.786106        -1.001569        -0.570486
 H         2.745917         1.839263        -0.567676
 H         1.182085         2.006847         1.963766
 H         0.392323         0.754584        -1.014705
 H         0.319200        -1.000479        -0.872540
 H        -0.961443        -0.002945        -0.083916
 H         1.443547        -1.701369         2.175933
