19
Iteration:   431charge 0 multiplicity 1
 C         3.911983         1.589331         2.771280
 C         3.030829         0.873833         1.698458
 O         3.317112        -0.535417         1.439813
 C         2.516762        -0.375849         0.077145
 C         2.698784         1.218772         0.252719
 C         1.568491         1.147751         1.315629
 C         1.116893        -0.133754         0.745667
 C        -0.071406        -0.168768        -0.155712
 O         0.886496        -1.137750         1.772120
 H         3.917060         1.352476         3.806098
 H         4.928911         1.589794         2.323832
 H         3.576857         2.651115         2.668185
 H         2.806622        -1.158108        -0.654245
 H         3.036747         2.045132        -0.408358
 H         0.880547         1.931805         1.656191
 H        -0.906621         0.076770         0.448091
 H        -0.034968         0.648007        -0.889058
 H        -0.114638        -1.120020        -0.759233
 H         1.796768        -1.327932         2.044332
