19
Iteration:  2136
 C         3.783695         1.581158         2.769082
 C         3.066286         0.895257         1.696128
 O         3.433293        -0.437987         1.410883
 C         2.558695        -0.375075         0.244430
 C         2.673771         1.259348         0.181730
 C         1.621563         1.072767         1.300232
 C         1.070966        -0.230784         0.789716
 C        -0.052876        -0.104148        -0.203521
 O         0.824967        -1.170912         1.715296
 H         3.675374         0.918972         3.649856
 H         4.881186         1.543537         2.624857
 H         3.502007         2.558889         2.884237
 H         2.925159        -1.050270        -0.597772
 H         2.960061         2.011199        -0.457916
 H         0.903551         1.838376         1.848554
 H         0.156943         0.711877        -0.880660
 H        -0.138070        -1.073899        -0.756582
 H        -0.930848         0.183836         0.379792
 H         1.683046        -1.344541         2.037417
