19
Iteration:  4168charge 0 multiplicity 1
 C         3.578919         1.497266         2.902336
 C         3.060860         0.937353         1.599630
 O         3.469928        -0.416727         1.380788
 C         2.570672        -0.330057         0.157318
 C         2.631185         1.246304         0.170541
 C         1.565357         1.145149         1.274578
 C         1.140058        -0.236806         0.734735
 C        -0.029469        -0.241877        -0.162049
 O         0.954920        -1.130279         1.792495
 H         3.552523         0.700610         3.646551
 H         4.704968         1.839168         2.798001
 H         3.165007         2.448906         3.378965
 H         3.025769        -0.975307        -0.638795
 H         2.969567         2.063630        -0.531495
 H         1.143283         2.159805         1.686317
 H         0.114232         0.554487        -0.799327
 H        -0.156131        -1.081194        -0.856418
 H        -1.011747         0.031475         0.427029
 H         1.903679        -1.458570         2.073312
