19
Iteration:  2398
 C         3.701380         1.519284         2.891837
 C         3.034975         0.896940         1.730596
 O         3.353011        -0.470888         1.252292
 C         2.546911        -0.271978         0.073240
 C         2.808651         1.291753         0.291054
 C         1.613745         1.176987         1.241334
 C         1.110980        -0.221787         0.770320
 C        -0.084981        -0.302590        -0.153941
 O         0.916477        -1.116063         1.800033
 H         3.154514         1.213651         3.797069
 H         4.779035         1.152500         3.058645
 H         3.837082         2.614746         2.777202
 H         2.549966        -0.834886        -0.829843
 H         3.191986         2.140053        -0.364790
 H         1.189907         2.064946         1.606185
 H         0.112185         0.279472        -1.161198
 H        -0.426800        -1.330738        -0.258808
 H        -0.943303         0.075340         0.322629
 H         1.881664        -1.307369         2.162896
