19
Iteration:  1273charge 0 multiplicity 1
 C         3.732253         1.477044         2.818283
 C         3.110030         0.825516         1.631439
 O         3.402258        -0.569178         1.233977
 C         2.532618        -0.291004         0.089418
 C         2.791944         1.283266         0.239164
 C         1.605378         1.211593         1.265440
 C         1.034255        -0.155699         0.886346
 C        -0.068232        -0.283269        -0.138689
 O         0.847928        -1.021342         1.855823
 H         3.116623         1.415741         3.759141
 H         4.828122         1.277676         2.972142
 H         3.722859         2.550128         2.589999
 H         2.576560        -1.120786        -0.684082
 H         3.363641         2.118292        -0.110291
 H         1.199175         2.003048         1.744890
 H        -1.081969        -0.282362         0.259385
 H         0.072914         0.628826        -0.941288
 H         0.022568        -1.267868        -0.866605
 H         1.733672        -0.946158         2.423868
