19
Iteration:  1280
 C         3.687437         1.485128         2.801201
 C         3.128026         0.835535         1.640057
 O         3.416209        -0.577844         1.221897
 C         2.543455        -0.271602         0.069228
 C         2.769642         1.232629         0.279452
 C         1.630878         1.212529         1.205026
 C         1.062452        -0.106516         0.875637
 C        -0.055749        -0.269380        -0.169991
 O         0.844022        -1.042884         1.914236
 H         3.190177         1.200790         3.725501
 H         4.762652         1.178634         3.058825
 H         3.765507         2.546880         2.632491
 H         2.629162        -0.930429        -0.842815
 H         3.161481         2.167496        -0.226789
 H         1.101241         1.984527         1.965880
 H        -1.087867        -0.251233         0.218431
 H         0.111422         0.498232        -0.926338
 H        -0.119459        -1.266456        -0.603974
 H         1.548000        -0.878644         2.492335
