19
Iteration:  1109
 C         3.965574         1.552147         2.745204
 C         3.150100         0.944914         1.673960
 O         3.422977        -0.441785         1.426786
 C         2.555730        -0.308651         0.221308
 C         2.629550         1.194173         0.199251
 C         1.550644         1.230246         1.355881
 C         1.092965        -0.249053         0.775787
 C        -0.033809        -0.160668        -0.202539
 O         0.685295        -1.276412         1.730399
 H         3.603553         1.315170         3.771291
 H         5.094081         1.481807         2.522353
 H         3.774755         2.611756         2.710036
 H         2.783067        -1.101873        -0.560626
 H         2.974608         1.869382        -0.567049
 H         0.915461         2.133043         1.649864
 H        -0.848725         0.306250         0.276044
 H         0.298053         0.500974        -1.081493
 H        -0.243389        -1.116512        -0.803369
 H         1.399744        -1.213323         2.429155
