19
Iteration:  2824
 C         3.846161         1.498773         2.817302
 C         3.066665         0.917193         1.688616
 O         3.386882        -0.524840         1.320617
 C         2.504052        -0.330661         0.177610
 C         2.701967         1.313853         0.300855
 C         1.582166         1.203054         1.322113
 C         1.063357        -0.185790         0.774471
 C        -0.084637        -0.202481        -0.346552
 O         0.919374        -1.144603         1.893462
 H         3.482078         1.049098         3.745612
 H         4.899484         1.549393         2.618094
 H         3.535887         2.591920         2.802581
 H         2.696890        -0.938315        -0.749590
 H         2.817854         2.032308        -0.473015
 H         1.000049         1.942470         1.703845
 H         0.107546         0.533011        -1.211760
 H        -0.031739        -1.278266        -0.681937
 H        -1.047342        -0.190900         0.130372
 H         1.900713        -1.407036         1.969265
