19
Iteration:   354
 C         3.777184         1.544966         2.705450
 C         3.134048         0.831511         1.642811
 O         3.479532        -0.504395         1.296082
 C         2.560621        -0.224208         0.135687
 C         2.610714         1.288047         0.288678
 C         1.614060         1.082022         1.297569
 C         1.086001        -0.206688         0.869059
 C        -0.043368        -0.114795        -0.225888
 O         0.776849        -1.189052         1.891732
 H         3.558592         1.197493         3.599307
 H         4.851426         1.369941         2.715939
 H         3.416997         2.558236         2.643577
 H         2.893000        -0.784820        -0.790151
 H         3.080487         2.039176        -0.393226
 H         1.129805         1.830412         1.745617
 H        -0.800404         0.639949        -0.103028
 H         0.422393        -0.086979        -1.217575
 H        -0.607382        -1.054943        -0.173457
 H         1.498802        -1.287846         2.494205
