19
Iteration:  2742
 C         3.989977         1.874992         2.549425
 C         3.133594         0.915467         1.753826
 O         3.434508        -0.438132         1.436999
 C         2.577362        -0.386449         0.290410
 C         2.541519         1.182260         0.312397
 C         1.655670         1.072881         1.503806
 C         1.128919        -0.296139         0.852077
 C         0.114753         0.082988        -0.266946
 O         0.514297        -1.542275         1.536062
 H         4.085784         1.645255         3.628002
 H         5.043402         1.855954         2.209875
 H         3.471690         2.801840         2.402999
 H         2.743650        -1.229779        -0.387485
 H         2.527738         2.050835        -0.412995
 H         1.061878         1.942119         2.036425
 H         0.521966         0.888999        -0.814265
 H        -0.174273        -0.808738        -0.791585
 H        -0.737433         0.565409         0.290231
 H         0.984985        -1.657404         2.412940
