19
Iteration:  1654
 C         3.935560         1.657353         2.622963
 C         3.075458         0.884889         1.679474
 O         3.358401        -0.466829         1.472882
 C         2.521647        -0.275731         0.180780
 C         2.583521         1.216597         0.303987
 C         1.591514         1.061786         1.483627
 C         1.120947        -0.208983         0.793900
 C         0.031911        -0.020433        -0.208846
 O         0.804809        -1.362504         1.606100
 H         3.757569         1.460879         3.674014
 H         4.953759         1.415895         2.548881
 H         3.669422         2.751374         2.459212
 H         2.777075        -0.956559        -0.578182
 H         2.757868         2.057579        -0.299420
 H         0.957118         1.844268         2.156653
 H         0.185589         0.612462        -1.064885
 H        -0.483171        -0.972545        -0.610121
 H        -0.745699         0.580150         0.362197
 H         1.647751        -1.581745         1.902119
