19
Iteration:  4674
 C         3.797405         1.597416         2.770729
 C         3.013125         1.012454         1.663005
 O         3.372060        -0.437464         1.469968
 C         2.549927        -0.449882         0.267999
 C         2.672954         1.230567         0.186455
 C         1.619731         1.150868         1.299490
 C         1.154641        -0.236170         0.808546
 C         0.138003        -0.199463        -0.341743
 O         0.715973        -1.168375         1.770527
 H         3.631713         2.665659         2.938228
 H         3.465892         1.020487         3.583114
 H         4.776610         1.391157         2.503267
 H         2.822219        -1.164074        -0.513307
 H         2.909444         1.984678        -0.619113
 H         1.139796         2.051957         1.654451
 H         0.454830         0.532303        -1.190313
 H         0.046441        -1.277932        -0.651961
 H        -0.829040        -0.003063         0.074906
 H         1.237113        -1.038369         2.607395
