19
Iteration:  3168
 C         3.960167         1.747637         2.622892
 C         3.048805         0.986271         1.786539
 O         3.488110        -0.490356         1.465226
 C         2.525302        -0.334401         0.274699
 C         2.624394         1.188531         0.287571
 C         1.590137         1.108163         1.415493
 C         1.079140        -0.240378         0.838956
 C        -0.021781        -0.042161        -0.242393
 O         0.697276        -1.427616         1.544210
 H         3.729341         1.780135         3.645081
 H         5.001400         1.485714         2.372263
 H         3.846913         2.823108         2.337322
 H         2.763022        -1.113954        -0.490428
 H         2.931202         1.874866        -0.508708
 H         1.066082         1.987183         1.894574
 H         0.069313         0.923515        -0.581414
 H         0.072716        -0.860912        -0.923887
 H        -1.085747         0.019005         0.156164
 H         1.379179        -1.469912         2.229686
