19
Iteration:  1644charge 0 multiplicity 1
 C         3.983019         1.676393         2.574807
 C         3.037582         0.958696         1.731167
 O         3.346361        -0.442812         1.461814
 C         2.525997        -0.328363         0.201633
 C         2.606884         1.240329         0.338375
 C         1.579461         1.090181         1.509968
 C         1.095338        -0.291909         0.806159
 C         0.031585         0.059128        -0.231687
 O         0.769924        -1.437826         1.595825
 H         3.780274         1.417833         3.614685
 H         4.911016         1.360040         2.212921
 H         4.084904         2.787950         2.427015
 H         2.965766        -0.918882        -0.551996
 H         2.968874         2.017341        -0.296950
 H         0.744053         1.811281         1.842809
 H         0.299583         0.808591        -0.883692
 H        -0.219282        -0.998875        -0.663771
 H        -0.909478         0.302152         0.340008
 H         1.604666        -1.621548         1.960020
