19
Iteration:  3959charge 0 multiplicity 1
 C         3.730237         1.542043         2.919438
 C         2.996174         0.987932         1.644247
 O         3.313392        -0.409838         1.346115
 C         2.589563        -0.284731         0.131236
 C         2.802252         1.242380         0.207188
 C         1.542580         1.175393         1.259437
 C         1.178231        -0.221627         0.765954
 C        -0.078163        -0.264149        -0.154718
 O         0.937183        -1.239199         1.780474
 H         3.480441         0.713493         3.550667
 H         4.797929         1.585574         2.657177
 H         3.282292         2.485375         3.237301
 H         2.960088        -0.865711        -0.724939
 H         3.037264         2.124718        -0.508746
 H         0.937409         2.055593         1.445873
 H        -0.119944         0.647572        -0.856431
 H         0.024293        -1.167433        -0.783772
 H        -0.996829        -0.203949         0.564796
 H         1.875419        -1.378152         2.203136
