19
Iteration:  4161
 C         3.631929         1.514065         2.873296
 C         3.064742         0.964908         1.599106
 O         3.470403        -0.398397         1.404475
 C         2.603653        -0.376585         0.172630
 C         2.603988         1.225928         0.215468
 C         1.537875         1.148029         1.248325
 C         1.164125        -0.253386         0.760096
 C        -0.032892        -0.152844        -0.133398
 O         0.960482        -1.136551         1.750904
 H         3.584405         0.600626         3.452720
 H         4.585763         1.917840         2.866422
 H         2.892943         2.256504         3.170750
 H         2.849487        -1.052801        -0.639981
 H         2.992645         1.949035        -0.481696
 H         1.037497         1.977105         1.723950
 H         0.017433         0.623313        -0.976667
 H        -0.078029        -1.046305        -0.769214
 H        -1.012576        -0.216412         0.320888
 H         1.780380        -1.546271         2.104872
