19
Iteration:  4192
 C         3.698862         1.497844         2.904872
 C         3.055872         0.937514         1.653401
 O         3.354455        -0.444643         1.275499
 C         2.591871        -0.253493         0.085353
 C         2.740334         1.333141         0.293088
 C         1.514909         1.138080         1.221700
 C         1.166337        -0.223819         0.756364
 C        -0.040915        -0.306314        -0.175802
 O         0.932024        -1.174906         1.843903
 H         3.150129         1.208903         3.800644
 H         4.785475         1.490285         3.117492
 H         3.488396         2.625284         2.896049
 H         2.876966        -0.831757        -0.815909
 H         3.089228         2.163541        -0.330703
 H         0.955749         1.976591         1.726051
 H         0.117413         0.131086        -1.187063
 H         0.106147        -1.351738        -0.413653
 H        -1.139873        -0.042804         0.106062
 H         1.679217        -1.193477         2.403001
