19
Iteration:  3496charge 0 multiplicity 1
 C         3.695703         1.579263         2.833882
 C         3.031627         0.942613         1.620055
 O         3.365527        -0.491372         1.383368
 C         2.521952        -0.283878         0.063836
 C         2.695045         1.202066         0.212338
 C         1.584506         1.171983         1.284776
 C         1.200634        -0.250063         0.795336
 C         0.039020        -0.150415        -0.151755
 O         0.886768        -1.199584         1.808257
 H         3.475530         0.908105         3.692533
 H         4.785270         1.795765         2.645506
 H         3.154116         2.494349         3.151886
 H         2.816305        -1.003339        -0.692751
 H         3.119776         2.053263        -0.381933
 H         0.926709         1.942173         1.666954
 H         0.000571         0.771927        -0.658438
 H         0.016749        -0.979434        -0.836477
 H        -0.961362        -0.229913         0.402072
 H         1.826671        -1.499459         2.125516
