19
Iteration:   136
 C         3.896604         1.642860         2.650625
 C         3.113624         0.872987         1.693600
 O         3.333186        -0.614417         1.425479
 C         2.527178        -0.355884         0.243185
 C         2.792924         1.217449         0.229592
 C         1.603132         1.217070         1.232732
 C         1.100867        -0.176043         0.807604
 C        -0.128174        -0.159543        -0.258762
 O         0.770444        -1.141148         1.877373
 H         3.892789         1.177218         3.610668
 H         4.938376         1.732266         2.292518
 H         3.671801         2.702105         2.698101
 H         2.836977        -1.079902        -0.581540
 H         3.146294         1.893727        -0.540536
 H         1.063475         2.031615         1.891134
 H         0.041599        -0.114531        -1.329369
 H        -0.758342        -1.062952        -0.048038
 H        -0.613762         0.750452        -0.074854
 H         1.660454        -1.314946         2.144944
