19
Iteration:  3025
 C         3.821482         1.681769         2.668779
 C         3.049509         0.947615         1.695519
 O         3.363452        -0.539267         1.386333
 C         2.534386        -0.312103         0.110822
 C         2.659798         1.249225         0.255341
 C         1.612154         1.045166         1.473448
 C         1.133714        -0.217639         0.827749
 C         0.078100        -0.099227        -0.203652
 O         0.773401        -1.260556         1.690805
 H         3.755666         1.181241         3.636557
 H         4.887536         1.756312         2.393070
 H         3.415575         2.632832         2.873594
 H         2.810601        -1.003596        -0.691139
 H         3.030946         2.040975        -0.426654
 H         0.875100         1.712175         1.803616
 H         0.310141         0.766784        -0.723308
 H        -0.045039        -1.043498        -0.739783
 H        -0.951465         0.217477         0.322724
 H         1.465978        -1.271054         2.463266
