19
Iteration:  4202
 C         3.698880         1.541210         2.865810
 C         3.102543         0.871889         1.652756
 O         3.387465        -0.468777         1.306742
 C         2.566677        -0.227462         0.105490
 C         2.674659         1.358532         0.324974
 C         1.516963         1.181390         1.289452
 C         1.116813        -0.181100         0.740878
 C         0.005077        -0.417661        -0.193812
 O         0.903711        -1.150639         1.763184
 H         3.164736         1.361773         3.790134
 H         4.766027         1.130632         2.989274
 H         3.772039         2.674633         2.713235
 H         2.958557        -0.853306        -0.720006
 H         3.151665         2.222550        -0.156446
 H         0.865936         1.999643         1.733780
 H         0.286544         0.123693        -1.039730
 H        -0.171218        -1.491697        -0.334303
 H        -0.937079         0.046110         0.275737
 H         1.721185        -1.086057         2.280684
