19
Iteration:  2332
 C         3.996614         1.673858         2.662233
 C         3.147768         0.986742         1.659545
 O         3.381349        -0.469394         1.433342
 C         2.531493        -0.305455         0.265064
 C         2.555868         1.183301         0.287305
 C         1.566058         1.107895         1.378693
 C         1.058444        -0.262618         0.907555
 C         0.101439        -0.062191        -0.315108
 O         0.640674        -1.323442         1.700117
 H         4.205694         1.015678         3.521334
 H         4.921882         2.136407         2.199373
 H         3.365375         2.452827         3.062696
 H         2.833549        -0.994614        -0.508817
 H         2.846962         1.937997        -0.512740
 H         1.236195         1.854509         1.996838
 H         0.429427         0.823019        -0.978298
 H         0.151384        -0.979028        -0.945185
 H        -0.957085        -0.050106        -0.114083
 H         1.527663        -1.636416         2.090890
