19
Iteration:  4542
 C         3.969265         1.746919         2.609222
 C         3.013268         1.019066         1.733755
 O         3.379296        -0.393457         1.473624
 C         2.596302        -0.334359         0.302016
 C         2.656505         1.238763         0.343961
 C         1.552745         1.116457         1.378894
 C         1.059905        -0.331421         0.796873
 C         0.081195        -0.159894        -0.348138
 O         0.652369        -1.398156         1.659664
 H         4.970759         1.189113         2.567155
 H         4.156500         2.754017         2.357304
 H         3.721378         1.816098         3.645798
 H         2.828023        -1.146398        -0.405097
 H         3.073952         2.019294        -0.231744
 H         0.964364         1.851133         1.954147
 H         0.604241         0.506365        -1.167626
 H         0.026882        -1.106423        -0.828911
 H        -0.866331         0.284782        -0.154009
 H         1.267804        -1.317305         2.419772
