19
Iteration:  2026
 C         3.969276         1.658483         2.588602
 C         3.075644         0.963496         1.676334
 O         3.370622        -0.461575         1.489218
 C         2.562416        -0.312369         0.207647
 C         2.571883         1.240972         0.373088
 C         1.528845         1.088649         1.475168
 C         1.079756        -0.269124         0.835732
 C         0.040256        -0.049795        -0.257551
 O         0.778769        -1.371019         1.597379
 H         3.997126         1.268463         3.642923
 H         4.918021         1.336527         2.191694
 H         3.934903         2.708696         2.508774
 H         2.745704        -1.023527        -0.696269
 H         2.806969         2.103156        -0.348185
 H         0.974761         1.998502         1.894050
 H         0.260253         0.814063        -0.758408
 H         0.006636        -0.902678        -0.951099
 H        -1.013468         0.142611         0.063042
 H         1.452805        -1.239893         2.369077
