19
Iteration:   139
 C         3.887925         1.615446         2.633436
 C         3.111320         0.895309         1.685856
 O         3.318320        -0.606218         1.446737
 C         2.543733        -0.344036         0.242368
 C         2.810465         1.213061         0.218485
 C         1.599550         1.227132         1.258123
 C         1.080640        -0.178959         0.792510
 C        -0.132260        -0.177253        -0.262803
 O         0.788638        -1.143684         1.874208
 H         3.924184         1.114097         3.669328
 H         4.903178         1.632949         2.325008
 H         3.603029         2.727359         2.710209
 H         2.810709        -1.064528        -0.584002
 H         3.135370         1.878735        -0.561787
 H         1.174808         2.070737         1.815321
 H         0.037672        -0.167544        -1.343583
 H        -0.793287        -1.018026        -0.000875
 H        -0.701891         0.868694        -0.035043
 H         1.790068        -1.319668         2.145865
