19
Iteration:  4576charge 0 multiplicity 1
 C         3.800803         1.654849         2.812874
 C         3.101364         0.997055         1.652081
 O         3.439833        -0.403871         1.415847
 C         2.568692        -0.359857         0.214070
 C         2.561844         1.126322         0.179505
 C         1.588726         1.056738         1.387331
 C         1.124334        -0.261304         0.810338
 C         0.114702        -0.115003        -0.334065
 O         0.692277        -1.171225         1.795415
 H         4.890047         1.842058         2.539083
 H         3.264510         2.575873         2.986484
 H         3.645874         0.898870         3.549721
 H         2.868449        -1.127478        -0.505369
 H         2.857163         1.837113        -0.625717
 H         1.039229         1.785998         1.923482
 H         0.621762         0.471673        -1.172270
 H         0.079996        -1.167000        -0.661251
 H        -0.871075         0.166238        -0.163907
 H         1.576091        -1.525230         2.174268
