19
Iteration:  1349
 C         3.993437         1.662523         2.643999
 C         3.100539         0.903297         1.666029
 O         3.269974        -0.483850         1.473803
 C         2.484627        -0.388664         0.209380
 C         2.664317         1.190576         0.267359
 C         1.600517         1.171635         1.363627
 C         1.114901        -0.210995         0.824000
 C        -0.036526        -0.067888        -0.215455
 O         0.786439        -1.286319         1.678743
 H         4.153498         0.987328         3.515115
 H         5.019037         1.901515         2.303220
 H         3.630908         2.603465         3.045394
 H         2.872783        -1.041656        -0.593034
 H         3.040303         1.977216        -0.357959
 H         1.128791         1.916646         1.829951
 H        -0.784636         0.619058         0.041875
 H         0.508189         0.235037        -1.179544
 H        -0.668103        -0.990351        -0.420076
 H         1.541823        -1.280319         2.353036
