19
Iteration:   449
 C         3.923396         1.721949         2.613690
 C         3.133621         0.883854         1.709468
 O         3.319860        -0.569513         1.386687
 C         2.550849        -0.278728         0.256129
 C         2.695123         1.195846         0.298099
 C         1.609606         1.141288         1.364696
 C         1.096114        -0.260666         0.775583
 C        -0.049014        -0.128276        -0.220621
 O         0.746116        -1.192047         1.743676
 H         3.970995         1.114001         3.690378
 H         5.001492         1.626351         2.478817
 H         3.509288         2.700513         2.720631
 H         2.823938        -0.904182        -0.631557
 H         2.944235         1.980729        -0.436868
 H         1.157805         1.919580         1.826929
 H        -1.019555        -0.380706         0.287561
 H        -0.093019         0.875943        -0.756175
 H         0.056495        -0.887911        -0.993917
 H         1.487707        -1.429198         2.250231
