19
Iteration:  2063charge 0 multiplicity 1
 C         4.098850         1.768208         2.503030
 C         3.117081         1.006013         1.702545
 O         3.508786        -0.438896         1.483383
 C         2.575786        -0.332595         0.326243
 C         2.493166         1.258529         0.427799
 C         1.502750         0.989459         1.588002
 C         1.058919        -0.318813         0.801588
 C         0.105008        -0.048278        -0.276679
 O         0.508503        -1.385237         1.509943
 H         4.390507         1.323344         3.418300
 H         5.028541         1.850598         1.819565
 H         3.751408         2.830193         2.630904
 H         2.834011        -1.010271        -0.470387
 H         2.631788         2.005276        -0.273758
 H         0.951072         1.881957         1.997504
 H         0.668511         0.570804        -1.085478
 H        -0.032289        -1.027618        -0.717779
 H        -0.758392         0.438355         0.030888
 H         1.243995        -1.817393         1.978826
