19
Iteration:  1399
 C         4.006668         1.775290         2.477731
 C         3.084788         0.918393         1.726392
 O         3.494328        -0.527913         1.438453
 C         2.553064        -0.375695         0.322007
 C         2.685973         1.185396         0.321317
 C         1.584810         1.010914         1.455870
 C         1.070553        -0.241439         0.864419
 C         0.088336         0.064028        -0.260109
 O         0.491699        -1.350921         1.669807
 H         4.185561         1.581943         3.535346
 H         5.017608         1.794327         1.977792
 H         3.593970         2.774091         2.390999
 H         2.691373        -1.061423        -0.559657
 H         2.732089         2.016938        -0.346443
 H         0.904943         1.863812         1.862474
 H        -1.045085         0.003702         0.155347
 H         0.280796         1.043807        -0.691159
 H         0.128226        -0.690508        -1.040042
 H         1.254620        -1.584312         2.184500
