19
Iteration:    88charge 0 multiplicity 1
 C         3.999357         1.690814         2.520763
 C         3.241964         0.902477         1.542127
 O         3.506611        -0.465238         1.456572
 C         2.504365        -0.477766         0.315679
 C         2.569058         1.187638         0.201762
 C         1.616398         1.072417         1.385262
 C         1.063022        -0.260430         0.946848
 C         0.087393        -0.014760        -0.259662
 O         0.459264        -1.210193         1.789047
 H         3.700876         1.304359         3.502307
 H         5.095549         1.728905         2.429580
 H         3.741543         2.738316         2.441180
 H         2.689176        -1.207848        -0.422486
 H         2.850609         1.938988        -0.549494
 H         1.216527         1.752747         2.031345
 H         0.355439         0.926871        -0.738292
 H         0.276656        -0.766793        -0.960911
 H        -0.931517         0.101224        -0.018748
 H         0.981340        -1.184948         2.611124
