19
Iteration:  4607charge 0 multiplicity 1
 C         3.683531         1.640294         2.820885
 C         3.075610         0.842186         1.683575
 O         3.429379        -0.537821         1.407264
 C         2.624594        -0.293113         0.154086
 C         2.782907         1.223964         0.315437
 C         1.558652         1.160759         1.154038
 C         1.123948        -0.184295         0.727821
 C        -0.025977        -0.231183        -0.173788
 O         0.776869        -1.125745         1.778299
 H         4.445936         2.356057         2.483856
 H         2.906351         2.150253         3.269125
 H         4.211784         1.035558         3.502463
 H         2.912817        -0.964392        -0.680133
 H         3.323876         1.966546        -0.316086
 H         1.036652         1.980564         1.607695
 H         0.080409         0.421657        -1.188907
 H        -0.002427        -1.264766        -0.493672
 H        -1.020766        -0.140973         0.233348
 H         1.343890        -1.090816         2.512378
