19
Iteration:  4619
 C         3.666576         1.625006         2.836891
 C         3.007413         0.870642         1.725472
 O         3.334456        -0.545573         1.422688
 C         2.681898        -0.330659         0.134290
 C         2.818527         1.185270         0.248694
 C         1.593536         1.206407         1.263412
 C         1.146146        -0.155122         0.739186
 C        -0.068333        -0.334901        -0.168043
 O         0.830359        -1.054179         1.694826
 H         4.277821         2.396921         2.307280
 H         3.062955         2.108964         3.555156
 H         4.253592         0.946743         3.364246
 H         3.119938        -0.814426        -0.754159
 H         3.379407         1.849130        -0.512624
 H         0.993207         1.970039         1.674524
 H        -0.052374         0.430677        -1.110181
 H        -0.179287        -1.381055        -0.517491
 H        -0.841333        -0.064223         0.507098
 H         1.614162        -0.910136         2.330408
