19
Iteration:  3277
 C         3.760687         1.493033         2.866734
 C         3.064257         0.957588         1.661166
 O         3.548601        -0.437001         1.267944
 C         2.562537        -0.296328         0.224941
 C         2.619095         1.272687         0.244453
 C         1.586179         1.171932         1.280408
 C         1.119224        -0.180408         0.779062
 C         0.015081        -0.299767        -0.229040
 O         0.723250        -1.115938         1.808094
 H         3.757487         0.740343         3.663262
 H         4.827453         1.633220         2.493681
 H         3.402876         2.519032         3.232728
 H         2.685106        -0.926704        -0.680599
 H         3.192790         1.890747        -0.333762
 H         0.872231         1.884335         1.793630
 H         0.234584         0.261257        -1.069993
 H        -0.143277        -1.266418        -0.664960
 H        -1.000442         0.067541         0.325739
 H         1.514741        -1.634536         2.173040
