19
Iteration:   971
 C         4.042148         1.732606         2.492456
 C         3.117685         0.869826         1.711501
 O         3.331360        -0.550129         1.513205
 C         2.530384        -0.339897         0.284332
 C         2.669161         1.249886         0.384457
 C         1.509135         1.097333         1.469055
 C         1.085564        -0.245071         0.791908
 C         0.020060        -0.040968        -0.333271
 O         0.692447        -1.286907         1.681177
 H         4.126374         1.381003         3.516131
 H         4.930446         1.862471         1.977705
 H         3.633513         2.723473         2.527132
 H         3.003475        -0.932554        -0.579073
 H         2.893610         2.039334        -0.324322
 H         0.823502         1.895409         1.943445
 H        -0.765192         0.717423        -0.088768
 H         0.563203         0.079649        -1.286449
 H        -0.422483        -0.954054        -0.504472
 H         1.550199        -1.576285         2.198067
