19
Iteration:    23
 C         4.106461         1.735014         2.453783
 C         3.044513         0.879318         1.786081
 O         3.249000        -0.616588         1.538374
 C         2.515191        -0.412520         0.243483
 C         2.733102         1.094741         0.267368
 C         1.613623         1.190881         1.304997
 C         1.046710        -0.181112         0.845161
 C        -0.041746        -0.049980        -0.261828
 O         0.745545        -1.180960         1.766947
 H         4.291124         1.563672         3.506995
 H         5.071782         1.561022         1.963770
 H         3.852523         2.779533         2.275630
 H         2.691927        -1.176184        -0.480462
 H         3.056855         1.839923        -0.446756
 H         1.050995         2.011738         1.657630
 H        -0.759455         0.759053        -0.072231
 H         0.384422         0.063531        -1.257663
 H        -0.613863        -0.940150        -0.263325
 H         1.253888        -1.050279         2.657991
