19
Iteration:  3610charge 0 multiplicity 1
 C         3.942759         1.759326         2.604548
 C         3.095822         0.948004         1.760594
 O         3.378767        -0.448949         1.380838
 C         2.531469        -0.310547         0.212407
 C         2.557026         1.305777         0.326211
 C         1.531788         1.035802         1.442602
 C         1.126851        -0.326439         0.840472
 C         0.153725        -0.106679        -0.268639
 O         0.649923        -1.369271         1.681426
 H         3.424705         2.128127         3.589823
 H         4.870134         1.169974         2.721805
 H         4.314036         2.780528         2.209264
 H         2.983227        -1.049758        -0.515407
 H         2.816739         2.292690        -0.231653
 H         0.964187         1.810292         1.859128
 H         0.549231         0.760494        -0.910650
 H         0.127006        -1.035042        -0.882649
 H        -0.798565         0.032541         0.180725
 H         1.421897        -1.732544         2.052976
