19
Iteration:  3749charge 0 multiplicity 1
 C         3.805786         1.444227         2.809843
 C         3.124855         0.907264         1.618105
 O         3.481785        -0.417549         1.339751
 C         2.535362        -0.260950         0.207653
 C         2.647364         1.356049         0.254519
 C         1.515105         1.176627         1.286529
 C         1.092706        -0.199283         0.755966
 C         0.004718        -0.355282        -0.243558
 O         0.790116        -1.043781         1.805258
 H         3.682938         0.560232         3.533017
 H         4.855979         1.704372         2.741669
 H         3.436971         2.219667         3.457900
 H         2.847026        -0.956181        -0.584949
 H         3.060907         2.162004        -0.428290
 H         0.867490         1.757412         1.862446
 H         0.135815        -0.215417        -1.479697
 H        -0.134095        -1.542655        -0.214483
 H        -0.986421        -0.168388         0.175062
 H         1.590029        -1.209514         2.427656
