19
Iteration:  3594charge 0 multiplicity 1
 C         4.004574         1.736562         2.751006
 C         3.024545         0.945799         1.661600
 O         3.348625        -0.461815         1.403358
 C         2.562147        -0.299206         0.166381
 C         2.552399         1.256278         0.317184
 C         1.540879         1.082997         1.436362
 C         1.104178        -0.281711         0.810541
 C         0.092789        -0.130059        -0.345877
 O         0.796053        -1.363771         1.748379
 H         3.471857         1.958446         3.640172
 H         4.876311         1.102425         3.008321
 H         4.265440         2.600081         2.214295
 H         2.670152        -0.845238        -0.739281
 H         2.564748         2.003605        -0.388020
 H         0.776910         1.733098         1.968327
 H         0.418213         0.631900        -1.032313
 H        -0.038494        -1.087904        -0.845039
 H        -0.951192         0.322996        -0.185166
 H         1.467827        -1.209724         2.453643
