19
Iteration:  1728
 C         3.786896         1.315349         2.886127
 C         3.039376         0.962464         1.640170
 O         3.406914        -0.423978         1.316370
 C         2.515057        -0.290034         0.086705
 C         2.659187         1.294846         0.188936
 C         1.594941         1.236859         1.311372
 C         1.138630        -0.232664         0.783250
 C        -0.069251        -0.236219        -0.189291
 O         0.929153        -1.073233         1.826769
 H         3.688491         0.522605         3.611520
 H         4.893131         1.348820         2.881454
 H         3.265785         2.140157         3.387980
 H         2.699431        -1.030837        -0.672906
 H         2.945700         1.962917        -0.580658
 H         0.948831         2.088213         1.829738
 H         0.215616        -0.114148        -1.296550
 H        -0.429119        -1.224446        -0.252060
 H        -0.898700         0.419232         0.076182
 H         1.736542        -1.016364         2.318312
