19
Iteration:  4400charge 0 multiplicity 1
 C         3.783023         1.571948         2.831942
 C         3.043550         0.902711         1.743474
 O         3.365500        -0.430169         1.364961
 C         2.564578        -0.212307         0.147193
 C         2.724336         1.257551         0.311265
 C         1.573113         1.130965         1.351004
 C         1.126874        -0.220233         0.722427
 C        -0.051922        -0.470602        -0.295532
 O         0.884153        -1.037844         1.729675
 H         3.517675         0.900257         3.763463
 H         4.814776         1.469803         2.527855
 H         3.568378         2.671868         2.981516
 H         2.734263        -0.852473        -0.722067
 H         2.935980         2.155107        -0.304130
 H         1.011215         2.014373         1.776093
 H         0.180237        -0.162987        -1.337160
 H        -0.092852        -1.521453        -0.298354
 H        -0.959284        -0.011843         0.064471
 H         1.550681        -0.950749         2.375954
