19
Iteration:  4047
 C         3.926905         1.722968         2.665239
 C         3.035403         0.949737         1.693567
 O         3.493489        -0.315008         1.393671
 C         2.577476        -0.344519         0.263819
 C         2.466697         1.254531         0.326179
 C         1.523144         1.003067         1.594503
 C         1.103827        -0.279289         0.829153
 C         0.119889        -0.102949        -0.356668
 O         0.701508        -1.408592         1.594283
 H         3.809899         1.608660         3.711058
 H         4.971681         1.464476         2.469624
 H         4.086398         2.754557         2.435931
 H         2.887004        -0.929201        -0.612783
 H         2.713224         2.072374        -0.306722
 H         0.915214         1.798685         1.956225
 H         0.504938         0.432768        -1.164214
 H         0.031772        -1.136700        -0.743519
 H        -0.907464         0.220620        -0.017130
 H         1.237651        -1.419044         2.361459
