19
Iteration:  3486
 C         3.790056         1.656448         2.842281
 C         3.092858         0.973177         1.687742
 O         3.307796        -0.469480         1.365565
 C         2.569870        -0.341326         0.134777
 C         2.718695         1.279706         0.159062
 C         1.579153         1.047953         1.307037
 C         1.096798        -0.281426         0.806359
 C         0.007251        -0.142852        -0.219979
 O         0.851073        -1.222764         1.803749
 H         3.797912         0.819335         3.689492
 H         4.894687         2.003054         2.746427
 H         3.198928         2.515482         3.217577
 H         2.915922        -0.889647        -0.718873
 H         2.924673         2.124918        -0.554708
 H         0.947352         1.861125         1.670487
 H         0.091293         0.797072        -0.774202
 H        -0.026029        -0.929959        -0.973750
 H        -0.901733        -0.187773         0.423316
 H         1.773211        -1.602712         2.042470
