19
Iteration:  1463
 C         3.951097         1.589258         2.717102
 C         3.040512         0.898915         1.726848
 O         3.389149        -0.541227         1.366482
 C         2.551340        -0.327469         0.204899
 C         2.674645         1.233085         0.209900
 C         1.595329         1.113946         1.343580
 C         1.044108        -0.195804         0.773538
 C        -0.009813        -0.145567        -0.235690
 O         0.741464        -1.126608         1.829987
 H         3.540109         1.503291         3.707387
 H         4.947949         1.177754         2.614216
 H         4.041719         2.612966         2.348810
 H         2.783983        -0.906129        -0.678778
 H         3.121557         2.008789        -0.329865
 H         0.938026         1.994441         1.703335
 H        -0.819743        -0.830987         0.119710
 H        -0.175799         0.870282        -0.430033
 H         0.209468        -0.556957        -1.211926
 H         1.566389        -1.448376         2.221496
