19
Iteration:  4699charge 0 multiplicity 1
 C         3.885188         1.782445         2.662572
 C         3.145681         0.938476         1.688055
 O         3.497257        -0.526457         1.448531
 C         2.603476        -0.361676         0.281837
 C         2.628120         1.177500         0.301043
 C         1.527186         1.053025         1.410215
 C         1.111636        -0.306029         0.799525
 C         0.180977        -0.162919        -0.410018
 O         0.487845        -1.138995         1.763328
 H         3.126183         2.500489         2.960741
 H         4.005695         1.104686         3.584600
 H         4.755874         2.355013         2.262326
 H         2.826411        -0.936951        -0.625095
 H         2.870201         1.817788        -0.498725
 H         1.089652         1.983731         1.865887
 H         0.667436         0.464962        -1.068462
 H         0.021841        -1.230146        -0.836086
 H        -0.854407         0.226667        -0.143948
 H         1.153704        -1.356273         2.401615
