19
Iteration:  3305
 C         3.719245         1.448556         2.883510
 C         3.112297         0.946545         1.626732
 O         3.292086        -0.452682         1.376788
 C         2.569932        -0.280087         0.114845
 C         2.695812         1.290843         0.224773
 C         1.674035         1.160360         1.261472
 C         1.097738        -0.209741         0.734814
 C        -0.072889        -0.318894        -0.204308
 O         0.947742        -1.100866         1.838031
 H         3.291966         0.857497         3.725172
 H         4.775221         1.471288         2.719650
 H         3.413460         2.446505         3.105166
 H         2.903395        -0.941136        -0.677272
 H         2.890746         2.199086        -0.409043
 H         1.031681         1.979336         1.601361
 H         0.092253         0.693638        -0.833402
 H        -0.128457        -1.187565        -0.937678
 H        -1.012469        -0.257437         0.219108
 H         1.770540        -1.115675         2.431821
