19
Iteration:  2923charge 0 multiplicity 1
 C         3.928562         1.708595         2.676264
 C         3.027995         0.896838         1.747969
 O         3.352504        -0.503259         1.330917
 C         2.492003        -0.277128         0.209640
 C         2.688349         1.272792         0.321661
 C         1.561520         1.129912         1.397389
 C         1.112874        -0.273766         0.792430
 C         0.028563        -0.064782        -0.230192
 O         0.781541        -1.341778         1.741434
 H         3.867524         1.361203         3.737070
 H         4.939931         1.648474         2.315308
 H         3.395323         2.687121         2.623047
 H         2.778815        -1.093239        -0.510438
 H         3.055116         2.057170        -0.432318
 H         0.850646         1.850545         1.879071
 H         0.596444         0.496883        -1.003110
 H         0.002162        -1.001954        -0.863928
 H        -0.911073         0.312242         0.174063
 H         1.611896        -1.774755         2.030622
