19
Iteration:  2492charge 0 multiplicity 1
 C         3.978839         1.807476         2.578324
 C         3.110119         0.941192         1.723024
 O         3.455744        -0.496882         1.380614
 C         2.505317        -0.354650         0.277959
 C         2.590235         1.256281         0.356499
 C         1.540107         0.975055         1.591885
 C         1.085425        -0.168920         0.854362
 C         0.155553        -0.072857        -0.377383
 O         0.606143        -1.360490         1.605346
 H         4.197889         1.292709         3.537275
 H         4.873356         2.196097         2.112483
 H         3.483249         2.691838         2.894371
 H         2.633425        -1.121155        -0.532867
 H         2.733313         2.131876        -0.382654
 H         1.078749         1.725060         2.141769
 H         0.324505         0.823053        -0.889706
 H         0.312315        -0.962084        -0.978686
 H        -0.926700        -0.266849        -0.012945
 H         1.123874        -1.665167         2.365088
