19
Iteration:  3406charge 0 multiplicity 1
 C         4.031360         1.814222         2.560523
 C         3.121906         0.965607         1.677231
 O         3.500363        -0.428687         1.432755
 C         2.527863        -0.351933         0.349612
 C         2.538376         1.218753         0.432512
 C         1.415736         1.010345         1.539577
 C         1.032046        -0.316423         0.869598
 C         0.138058        -0.016138        -0.440464
 O         0.663155        -1.391453         1.612244
 H         4.100997         1.365017         3.567542
 H         5.083962         1.849501         2.193580
 H         3.610629         2.858048         2.632705
 H         2.765764        -0.989256        -0.546426
 H         2.707744         1.878516        -0.415257
 H         0.741958         1.683710         2.130563
 H         0.648731         0.534163        -1.164934
 H        -0.151661        -1.018276        -0.732382
 H        -0.815879         0.624930        -0.293948
 H         1.438057        -1.827242         2.137137
