19
Iteration:  2539charge 0 multiplicity 1
 C         4.018857         1.734629         2.522811
 C         3.004785         1.018954         1.732916
 O         3.436664        -0.448302         1.497431
 C         2.599602        -0.387342         0.349031
 C         2.558869         1.263238         0.368564
 C         1.528266         1.048292         1.528859
 C         1.107661        -0.293572         0.763167
 C         0.101091        -0.034264        -0.286461
 O         0.638916        -1.373686         1.537418
 H         4.322722         1.030787         3.328150
 H         4.877481         2.000514         1.802328
 H         3.858793         2.793876         2.899594
 H         2.880539        -0.929578        -0.515214
 H         2.741359         2.103475        -0.209284
 H         0.718544         1.559023         2.108868
 H         0.389207         0.887738        -0.986387
 H        -0.049323        -0.985498        -0.812639
 H        -0.846465         0.035281         0.142764
 H         1.277447        -1.811052         2.027146
