19
Iteration:  2152
 C         3.816861         1.498066         2.877818
 C         3.115023         0.970620         1.595473
 O         3.314236        -0.503003         1.406722
 C         2.550168        -0.307612         0.149227
 C         2.731600         1.240885         0.256162
 C         1.563092         1.270714         1.259048
 C         1.154817        -0.172603         0.735272
 C        -0.095265        -0.227292        -0.174956
 O         0.880223        -1.217922         1.777492
 H         3.311980         1.029024         3.734340
 H         4.895557         1.337692         2.822461
 H         3.577520         2.635163         3.019905
 H         2.758630        -1.052744        -0.578130
 H         3.003221         1.992265        -0.581672
 H         1.107460         2.137653         1.567051
 H        -0.163041         0.529285        -1.003906
 H        -0.065141        -1.134834        -0.777350
 H        -0.999252        -0.064776         0.464677
 H         1.843436        -1.408942         2.093552
