19
Iteration:  2353
 C         3.877766         1.554025         2.767680
 C         3.059147         0.939947         1.699407
 O         3.465322        -0.417405         1.300668
 C         2.512647        -0.324587         0.181320
 C         2.658426         1.247175         0.209772
 C         1.565787         1.136947         1.399763
 C         1.151761        -0.208301         0.835038
 C         0.103613        -0.210440        -0.264456
 O         0.634345        -1.218057         1.806365
 H         3.794891         0.843276         3.670040
 H         4.978406         1.606584         2.430819
 H         3.544734         2.555344         3.031276
 H         2.835511        -0.994625        -0.615867
 H         2.668532         2.201384        -0.428437
 H         0.969842         1.945925         1.693453
 H         0.348095         0.679771        -0.929681
 H        -0.058605        -1.105776        -0.878417
 H        -0.927272        -0.115573         0.124567
 H         1.514462        -1.328566         2.333492
