19
Iteration:  4236
 C         3.938646         1.655971         2.785484
 C         3.085243         0.965695         1.708291
 O         3.357709        -0.370426         1.388481
 C         2.589006        -0.269155         0.153049
 C         2.602828         1.312098         0.350615
 C         1.487003         1.099866         1.386682
 C         1.022866        -0.253044         0.776892
 C         0.042080        -0.313202        -0.312933
 O         0.836275        -1.291723         1.733389
 H         3.367823         1.802757         3.725639
 H         4.754846         0.947348         2.947038
 H         4.411676         2.603899         2.380992
 H         2.969562        -0.962286        -0.603108
 H         2.971530         2.150136        -0.194194
 H         0.715554         1.774302         1.666779
 H         0.299473         0.288900        -1.233896
 H        -0.146692        -1.313485        -0.671807
 H        -0.969682         0.128569        -0.086823
 H         1.721540        -1.465003         2.032086
