19
Iteration:  1002
 C         3.914099         1.598709         2.697651
 C         3.106288         0.945783         1.621792
 O         3.395062        -0.471196         1.358865
 C         2.529275        -0.424913         0.255239
 C         2.592006         1.210379         0.241611
 C         1.579232         1.122154         1.367977
 C         1.132783        -0.214281         0.850465
 C         0.076050        -0.052644        -0.239326
 O         0.690571        -1.228217         1.763908
 H         3.798962         1.051018         3.670805
 H         5.038737         1.690992         2.554147
 H         3.536177         2.590829         2.764849
 H         2.988366        -1.219336        -0.496603
 H         2.868462         1.949885        -0.477873
 H         0.898512         2.045122         1.611391
 H        -0.903334         0.352144         0.042264
 H         0.556263         0.591061        -1.066194
 H        -0.200786        -1.052815        -0.545012
 H         1.303033        -1.296843         2.518224
