19
Iteration:  2669
 C         3.853713         1.458501         2.784203
 C         3.044275         0.939206         1.647375
 O         3.329333        -0.442413         1.387050
 C         2.498239        -0.323576         0.186503
 C         2.655160         1.327179         0.230061
 C         1.589697         1.198709         1.364366
 C         1.131737        -0.197248         0.747922
 C         0.010022        -0.240414        -0.242082
 O         0.857594        -1.158346         1.757505
 H         3.739212         0.818373         3.652140
 H         4.959942         1.445031         2.670362
 H         3.373582         2.400978         3.040184
 H         2.847569        -0.988458        -0.555430
 H         3.215082         1.950082        -0.519851
 H         0.968593         2.000459         1.922170
 H        -0.064528         0.448284        -1.211695
 H         0.142856        -1.305234        -0.473216
 H        -0.862035        -0.185764         0.354298
 H         1.706593        -1.175631         2.269532
