19
Iteration:   719charge 0 multiplicity 1
 C         4.063952         1.765426         2.502316
 C         3.078857         0.953886         1.684709
 O         3.359078        -0.451404         1.535527
 C         2.553557        -0.366427         0.320330
 C         2.622905         1.213147         0.299142
 C         1.576535         1.071722         1.499758
 C         1.109711        -0.300196         0.823747
 C         0.066259         0.014016        -0.258321
 O         0.576405        -1.405710         1.586144
 H         4.003667         1.409456         3.549149
 H         5.078654         1.701452         2.053803
 H         3.852145         2.800558         2.500005
 H         2.868289        -0.847587        -0.680275
 H         2.883148         1.839232        -0.555503
 H         1.124731         1.826267         2.016283
 H        -0.858973         0.125853         0.275762
 H         0.397623         0.887255        -0.848746
 H        -0.133942        -0.858508        -0.833691
 H         1.359837        -1.661369         2.207833
