19
Iteration:  3215
 C         3.968151         1.770879         2.518148
 C         3.071707         0.884695         1.763996
 O         3.429544        -0.458451         1.465866
 C         2.569608        -0.342829         0.325986
 C         2.625551         1.214751         0.390073
 C         1.506814         1.084118         1.421238
 C         1.110337        -0.231424         0.834295
 C         0.090716         0.021015        -0.268311
 O         0.657822        -1.469873         1.569957
 H         4.095988         1.590435         3.564197
 H         4.865800         1.703468         1.916309
 H         3.612389         2.801817         2.468889
 H         2.743692        -1.043224        -0.503796
 H         2.755866         2.069274        -0.219541
 H         0.787299         1.822276         1.790692
 H         0.421651         0.859156        -0.994159
 H        -0.149888        -0.983259        -0.618209
 H        -0.836553         0.425387         0.007755
 H         1.403920        -1.483791         2.279811
