19
Iteration:  3503
 C         3.614119         1.528686         2.803859
 C         3.010276         0.898323         1.627308
 O         3.411716        -0.490618         1.371253
 C         2.562839        -0.287137         0.113663
 C         2.676098         1.216213         0.256028
 C         1.607621         1.227564         1.265927
 C         1.177631        -0.186541         0.768725
 C         0.008702        -0.178130        -0.125184
 O         0.929194        -1.195504         1.791549
 H         3.536992         0.885364         3.622493
 H         4.659366         1.573142         2.730238
 H         3.221650         2.547302         2.890343
 H         2.689056        -1.068090        -0.704689
 H         3.116409         1.928622        -0.515997
 H         0.982397         1.970793         1.702611
 H        -0.000846         0.776969        -0.667090
 H         0.089691        -1.036756        -0.806931
 H        -0.995295        -0.163608         0.443402
 H         1.779373        -1.325320         2.260086
