19
Iteration:  3087charge 0 multiplicity 1
 C         3.761447         1.415454         2.886978
 C         3.052485         0.920550         1.591425
 O         3.303509        -0.485041         1.356768
 C         2.533965        -0.244858         0.080262
 C         2.761405         1.362227         0.244260
 C         1.608903         1.230043         1.180988
 C         1.116974        -0.142901         0.800499
 C        -0.025099        -0.326288        -0.113569
 O         0.892981        -1.141789         1.792931
 H         3.761793         0.476201         3.565654
 H         4.806569         1.617638         2.651441
 H         3.254553         2.260714         3.330894
 H         3.070219        -0.879668        -0.570011
 H         2.883450         2.101594        -0.463752
 H         1.141306         1.980481         1.824927
 H         0.224197        -0.066135        -1.122054
 H        -0.366480        -1.364370        -0.330026
 H        -0.856543         0.246637         0.268325
 H         1.631483        -1.169223         2.477545
