19
Iteration:   913charge 0 multiplicity 1
 C         3.959780         1.730496         2.693033
 C         3.090564         0.897074         1.623173
 O         3.417836        -0.452520         1.427936
 C         2.503413        -0.451140         0.224532
 C         2.572765         1.168708         0.209412
 C         1.625501         1.145129         1.424997
 C         1.122780        -0.309149         0.833971
 C         0.053072         0.030311        -0.254720
 O         0.681057        -1.317573         1.707384
 H         3.834383         1.355246         3.708038
 H         5.055940         1.474097         2.632986
 H         3.717119         2.765175         2.683027
 H         2.868269        -1.213771        -0.515073
 H         2.660761         2.027492        -0.480354
 H         1.145411         1.997030         1.860911
 H        -0.777757         0.537284         0.150591
 H         0.458720         0.740999        -0.972871
 H        -0.348567        -0.951837        -0.709585
 H         1.081784        -1.220435         2.507876
