19
Iteration:  3425charge 0 multiplicity 1
 C         4.100775         1.842206         2.581506
 C         3.068578         0.923976         1.742670
 O         3.374126        -0.430052         1.479814
 C         2.553600        -0.308390         0.210954
 C         2.525925         1.275636         0.401218
 C         1.601247         1.015529         1.548374
 C         1.075657        -0.333660         0.799787
 C         0.162153        -0.118371        -0.394473
 O         0.580004        -1.413918         1.635179
 H         4.344011         1.432880         3.551109
 H         4.798999         2.132238         1.859575
 H         3.608727         2.719776         2.944711
 H         2.945679        -0.849533        -0.653538
 H         2.465631         2.102267        -0.176778
 H         0.931148         1.839575         1.931584
 H         0.630901         0.624141        -1.209933
 H        -0.268974        -1.069731        -0.843791
 H        -0.711635         0.412222        -0.110409
 H         1.342162        -1.678662         2.279387
