19
Iteration:    90
 C         3.973904         1.690459         2.511923
 C         3.244430         0.897859         1.558692
 O         3.504031        -0.469241         1.456742
 C         2.512626        -0.472869         0.316304
 C         2.572131         1.187733         0.194082
 C         1.626861         1.069317         1.385876
 C         1.077401        -0.249514         0.936391
 C         0.073359        -0.012407        -0.260355
 O         0.467639        -1.203295         1.803988
 H         3.712835         1.285633         3.437151
 H         5.112681         1.694751         2.447000
 H         3.718310         2.692106         2.453183
 H         2.676420        -1.160331        -0.471544
 H         2.818826         1.961619        -0.570101
 H         1.205702         1.714129         2.107048
 H         0.375893         0.906691        -0.799522
 H         0.230306        -0.842972        -0.965654
 H        -0.876301         0.127445        -0.032269
 H         0.919618        -1.214576         2.598018
