19
Iteration:   287charge 0 multiplicity 1
 C         4.109065         1.713133         2.541335
 C         3.050087         0.997259         1.741862
 O         3.326025        -0.389862         1.517377
 C         2.508317        -0.350527         0.319374
 C         2.668187         1.207269         0.252714
 C         1.590849         1.087347         1.365101
 C         1.097153        -0.300438         0.838791
 C         0.004948        -0.019333        -0.159459
 O         0.647697        -1.420407         1.577352
 H         4.422682         1.188678         3.398796
 H         5.079631         1.599796         1.891738
 H         3.750625         2.669823         2.886324
 H         2.815746        -1.041331        -0.524720
 H         2.938410         1.846165        -0.563303
 H         0.822883         1.806947         1.808259
 H        -0.980385        -0.465612         0.198801
 H         0.029050         1.077231        -0.466726
 H         0.173028        -0.459685        -1.124812
 H         1.430923        -1.542071         2.273830
