19
Iteration:  3742
 C         3.816984         1.411325         2.815217
 C         3.022447         0.943304         1.608435
 O         3.431919        -0.419510         1.322202
 C         2.593484        -0.256192         0.216622
 C         2.689827         1.335083         0.276442
 C         1.541182         1.177714         1.304359
 C         1.168532        -0.107600         0.772796
 C         0.028924        -0.403895        -0.238852
 O         0.759658        -1.104125         1.797258
 H         3.935578         0.514223         3.448437
 H         4.810247         1.807334         2.481751
 H         3.198851         2.310379         3.218471
 H         2.693643        -0.837650        -0.698539
 H         3.006580         2.063295        -0.372440
 H         0.927170         1.940164         1.870528
 H         0.021386        -0.275980        -1.310871
 H        -0.170957        -1.460742        -0.167737
 H        -0.905182         0.011275         0.148225
 H         1.499888        -1.142249         2.492052
