19
Iteration:  1078
 C         3.815045         1.514451         2.732668
 C         3.026070         0.886942         1.652869
 O         3.218692        -0.494454         1.403750
 C         2.594368        -0.289691         0.115878
 C         2.794319         1.169181         0.220451
 C         1.613416         1.206250         1.353485
 C         1.091204        -0.157012         0.730745
 C        -0.062674        -0.225535        -0.185548
 O         0.925057        -1.098132         1.838780
 H         3.495507         1.196712         3.793747
 H         4.941519         1.255156         2.696254
 H         3.637587         2.605683         2.696875
 H         2.778503        -1.127358        -0.674815
 H         3.262123         2.001234        -0.336423
 H         1.009697         2.047033         1.811249
 H        -1.059675        -0.326221         0.319885
 H        -0.261020         0.750192        -0.766207
 H         0.053084        -1.159665        -0.818065
 H         1.795521        -1.275973         2.036210
