19
Iteration:  2474
 C         3.840074         1.678667         2.652394
 C         3.139543         0.918530         1.722838
 O         3.475681        -0.416555         1.382024
 C         2.561967        -0.300306         0.208009
 C         2.604612         1.210398         0.301759
 C         1.596563         1.083230         1.482745
 C         1.134981        -0.308325         0.834380
 C         0.070701        -0.107833        -0.246166
 O         0.600127        -1.283793         1.663631
 H         3.871752         1.202846         3.668115
 H         4.905846         1.721527         2.174285
 H         3.416612         2.725417         2.859096
 H         2.962024        -0.892530        -0.572421
 H         2.680059         2.027716        -0.387999
 H         0.975173         1.867370         1.904097
 H         0.342678         0.849468        -0.902250
 H         0.117301        -0.922745        -0.998979
 H        -0.900637        -0.087394         0.168802
 H         1.446607        -1.645770         1.974236
