19
Iteration:  4166
 C         3.591130         1.501050         2.892868
 C         3.064592         0.943389         1.594919
 O         3.473710        -0.408443         1.392501
 C         2.577297        -0.351481         0.163961
 C         2.616680         1.240495         0.183877
 C         1.548888         1.146521         1.269231
 C         1.145641        -0.244786         0.736204
 C        -0.027379        -0.211616        -0.138565
 O         0.962408        -1.126116         1.775393
 H         3.561309         0.604765         3.600615
 H         4.699114         1.899803         2.822828
 H         3.088091         2.419022         3.313111
 H         2.984487        -0.993785        -0.644446
 H         2.986103         2.023272        -0.500206
 H         1.157677         2.108596         1.685385
 H         0.083467         0.556996        -0.894638
 H        -0.137890        -1.053954        -0.871135
 H        -1.017667        -0.052687         0.372189
 H         1.836308        -1.500953         2.083242
