19
Iteration:  4310
 C         3.848292         2.000304         2.637728
 C         3.049988         0.941355         1.772963
 O         3.482874        -0.483418         1.393981
 C         2.699897        -0.313207         0.194885
 C         2.701273         1.148474         0.316714
 C         1.615976         1.032271         1.469266
 C         1.105242        -0.324857         0.855320
 C         0.001117        -0.062872        -0.211309
 O         0.579115        -1.461467         1.581382
 H         3.073660         2.311917         3.310272
 H         4.713563         1.578912         3.208225
 H         4.142835         2.926883         2.053089
 H         2.890959        -0.958949        -0.668708
 H         2.948877         2.042129        -0.191029
 H         1.104857         1.908632         1.817713
 H         0.008862         0.808419        -0.658351
 H         0.215307        -0.751805        -1.009183
 H        -1.111853        -0.081359         0.117107
 H         1.175747        -2.001795         2.075025
