19
Iteration:  3280charge 0 multiplicity 1
 C         3.776152         1.484699         2.886941
 C         3.049961         0.959982         1.655763
 O         3.556066        -0.442052         1.271794
 C         2.564060        -0.292901         0.215164
 C         2.631707         1.253204         0.242558
 C         1.554469         1.169540         1.275420
 C         1.104601        -0.158571         0.776032
 C         0.004200        -0.288050        -0.234196
 O         0.756532        -1.111676         1.816311
 H         3.625047         0.778891         3.695271
 H         4.780211         1.646109         2.517289
 H         3.419588         2.440211         3.270629
 H         2.691053        -0.939826        -0.661973
 H         3.221500         1.885797        -0.486781
 H         0.947780         1.858593         1.792935
 H         0.090607         0.413566        -1.206314
 H        -0.136101        -1.365581        -0.571082
 H        -0.967445        -0.035015         0.272281
 H         1.523928        -1.610620         2.238627
