19
Iteration:  4524charge 0 multiplicity 1
 C         4.053084         1.862108         2.636259
 C         3.107021         0.923312         1.791975
 O         3.379873        -0.506308         1.619596
 C         2.553837        -0.291953         0.227502
 C         2.649541         1.198494         0.374587
 C         1.468242         1.067548         1.465223
 C         1.122467        -0.241623         0.745242
 C        -0.021003        -0.194099        -0.401196
 O         0.694341        -1.322925         1.561447
 H         5.062491         1.297650         2.660392
 H         4.225855         2.673298         1.815684
 H         3.556314         2.238877         3.573915
 H         3.070867        -0.829076        -0.564784
 H         2.717054         1.933355        -0.494319
 H         0.885581         1.914865         1.667914
 H         0.114866         0.495699        -1.198918
 H        -0.053460        -1.267380        -0.794370
 H        -0.904189         0.099953         0.165325
 H         1.349081        -1.446088         2.293706
