19
Iteration:  2441charge 0 multiplicity 1
 C         3.724254         1.582081         2.848241
 C         3.078358         0.942496         1.690266
 O         3.392023        -0.406236         1.359535
 C         2.541177        -0.329502         0.131093
 C         2.718889         1.220616         0.264763
 C         1.607192         1.100572         1.303958
 C         1.106219        -0.249309         0.716410
 C        -0.101025        -0.127165        -0.157929
 O         0.906997        -1.243439         1.719084
 H         3.371100         1.192584         3.827125
 H         4.834055         1.233544         2.791990
 H         3.875010         2.679924         2.765777
 H         3.006589        -1.071704        -0.465552
 H         2.943099         1.966392        -0.516608
 H         0.980965         1.887474         1.619582
 H         0.252553         0.664715        -0.925431
 H        -0.415227        -1.088465        -0.576993
 H        -0.931688         0.271476         0.389010
 H         1.615427        -1.282424         2.351366
