19
Iteration:  3426charge 0 multiplicity 1
 C         4.095673         1.838538         2.582227
 C         3.056734         0.920339         1.744136
 O         3.369897        -0.429803         1.476746
 C         2.559744        -0.312749         0.208715
 C         2.534040         1.281239         0.400355
 C         1.601799         1.025028         1.546001
 C         1.081932        -0.338554         0.807440
 C         0.164721        -0.119784        -0.394753
 O         0.582303        -1.410829         1.630805
 H         4.391636         1.424194         3.525707
 H         4.808054         2.132839         1.868498
 H         3.585101         2.726490         2.939332
 H         2.954789        -0.862870        -0.671453
 H         2.459809         2.116722        -0.184425
 H         0.937044         1.839085         1.954657
 H         0.596708         0.602036        -1.181813
 H        -0.246325        -1.073992        -0.811750
 H        -0.745257         0.421314        -0.087578
 H         1.295791        -1.679445         2.290200
