19
Iteration:  2630charge 0 multiplicity 1
 C         3.660733         1.414196         2.979252
 C         3.108998         0.919022         1.611326
 O         3.366603        -0.426324         1.239226
 C         2.570949        -0.243008         0.126533
 C         2.714021         1.295402         0.222802
 C         1.615851         1.186948         1.184513
 C         1.178465        -0.192805         0.751068
 C        -0.124820        -0.280582        -0.195812
 O         0.916576        -1.108984         1.931978
 H         3.157666         0.948025         3.860659
 H         4.714229         1.093053         2.917614
 H         3.835284         2.532603         2.899760
 H         2.888238        -0.833781        -0.790081
 H         3.458108         1.950670        -0.279974
 H         0.966261         1.831883         1.675220
 H        -0.129445         0.472248        -0.920279
 H        -0.365251        -1.280528        -0.632690
 H        -1.055576        -0.050986         0.414549
 H         1.728355        -1.541098         2.041463
