19
Iteration:   574
 C         3.898995         1.573098         2.702192
 C         3.018184         0.897389         1.711659
 O         3.326843        -0.486260         1.418239
 C         2.578386        -0.310677         0.167318
 C         2.739013         1.189868         0.218310
 C         1.579683         1.203209         1.322586
 C         1.107567        -0.226411         0.792127
 C        -0.098535        -0.112073        -0.190201
 O         0.867354        -1.236547         1.765725
 H         3.643710         1.127833         3.625271
 H         4.987649         1.370208         2.435144
 H         3.736425         2.710457         2.862517
 H         2.778446        -1.012382        -0.623223
 H         2.867104         2.039276        -0.468560
 H         0.933943         2.174255         1.683536
 H        -0.907858         0.450878         0.256567
 H         0.152508         0.362988        -1.090433
 H        -0.368587        -1.171214        -0.557313
 H         1.606128        -1.327068         2.332205
