19
Iteration:  1924charge 0 multiplicity 1
 C         3.765233         1.428365         2.883546
 C         3.105314         0.933622         1.650803
 O         3.295609        -0.446828         1.249686
 C         2.477637        -0.263729         0.140482
 C         2.739724         1.238727         0.228111
 C         1.607523         1.295058         1.231468
 C         1.126655        -0.202779         0.818923
 C        -0.038292        -0.214216        -0.213029
 O         0.919014        -1.220906         1.893388
 H         3.608826         0.637656         3.636429
 H         4.885197         1.543430         2.717956
 H         3.491768         2.480423         3.330883
 H         2.834503        -0.861895        -0.634412
 H         2.909260         2.039907        -0.453686
 H         0.935240         2.077740         1.673334
 H         0.443994         0.171872        -1.229678
 H        -0.452917        -1.190712        -0.514069
 H        -0.970840         0.443227         0.159019
 H         1.890864        -1.498288         2.224610
