19
Iteration:  3126
 C         3.786513         1.588024         2.842058
 C         3.086661         0.860551         1.700445
 O         3.405445        -0.495539         1.335540
 C         2.553005        -0.312968         0.133275
 C         2.610493         1.240248         0.181895
 C         1.602403         1.086900         1.389363
 C         1.121437        -0.232409         0.788924
 C        -0.000867        -0.189471        -0.263303
 O         0.828559        -1.077281         1.800727
 H         3.615821         1.147093         3.776816
 H         4.871488         1.449303         2.672275
 H         3.697741         2.711426         2.921178
 H         2.800295        -0.883339        -0.811656
 H         2.560323         2.082342        -0.518363
 H         1.063377         1.845129         2.051314
 H         0.199901         0.705259        -0.987383
 H        -0.006447        -1.155040        -0.805901
 H        -0.983155        -0.032786         0.186210
 H         1.736701        -1.457148         2.148430
