19
Iteration:  2870charge 0 multiplicity 1
 C         3.726605         1.451507         2.974529
 C         3.137118         0.905436         1.617453
 O         3.441378        -0.468986         1.255576
 C         2.615737        -0.262467         0.141513
 C         2.755826         1.296097         0.181030
 C         1.578119         1.193456         1.157378
 C         1.113502        -0.161177         0.781051
 C        -0.111435        -0.252450        -0.171324
 O         0.844499        -1.184527         1.876425
 H         3.549567         0.493826         3.506599
 H         4.744035         1.693142         2.760571
 H         3.241373         2.316943         3.426314
 H         2.686158        -0.998228        -0.698483
 H         2.916232         2.251462        -0.455992
 H         0.977625         2.164280         1.374880
 H         0.024564         0.405134        -0.973228
 H        -0.416741        -1.315480        -0.378304
 H        -1.043454         0.085348         0.510961
 H         1.388047        -0.946782         2.712011
