19
Iteration:  4211
 C         3.733358         1.567693         2.816603
 C         3.035005         0.899371         1.736220
 O         3.432618        -0.494520         1.341600
 C         2.584555        -0.184299         0.143074
 C         2.651866         1.348780         0.322194
 C         1.578024         1.204248         1.336778
 C         1.095562        -0.195961         0.782647
 C         0.015679        -0.443897        -0.268176
 O         0.895535        -1.136427         1.717036
 H         3.151661         1.374473         3.702812
 H         4.713822         0.930707         2.863173
 H         3.981929         2.618315         2.495676
 H         2.704135        -0.850398        -0.747418
 H         2.908131         2.168564        -0.407409
 H         0.873292         1.897583         1.961309
 H         0.040119        -0.023599        -1.174048
 H        -0.370948        -1.458257        -0.443379
 H        -0.875165         0.043888         0.238782
 H         1.716240        -1.214092         2.223599
