19
Iteration:   853charge 0 multiplicity 1
 C         3.851445         1.571119         2.806031
 C         3.102695         0.865981         1.695510
 O         3.312840        -0.578828         1.337049
 C         2.529263        -0.275925         0.133225
 C         2.806981         1.185576         0.227560
 C         1.589720         1.172025         1.290586
 C         1.062965        -0.163680         0.774346
 C        -0.081180        -0.270623        -0.198222
 O         0.846152        -1.017718         1.810148
 H         3.464365         0.967038         3.704677
 H         4.920574         1.543063         2.706319
 H         3.602377         2.687534         3.026604
 H         2.772593        -0.909292        -0.736870
 H         3.199732         2.011045        -0.294807
 H         0.953570         2.119091         1.665582
 H        -1.039427        -0.490801         0.480419
 H        -0.293615         0.539743        -0.965764
 H         0.099785        -1.097013        -0.838433
 H         1.848429        -1.101104         2.231491
