19
Iteration:  4586
 C         3.723665         1.666736         2.833743
 C         3.098890         0.959719         1.603041
 O         3.440187        -0.444078         1.362002
 C         2.573182        -0.440944         0.234310
 C         2.714177         1.254598         0.236866
 C         1.618825         1.105417         1.377428
 C         1.077687        -0.279483         0.794367
 C         0.041702        -0.198890        -0.361508
 O         0.714617        -1.161814         1.830981
 H         4.761886         2.033250         2.610170
 H         3.203436         2.472642         3.263151
 H         3.933277         0.995600         3.611272
 H         2.939524        -1.050043        -0.600422
 H         2.890502         1.944557        -0.605036
 H         1.142387         1.962748         1.800041
 H         0.420594         0.564914        -1.171758
 H        -0.199373        -1.108192        -0.889296
 H        -0.878071         0.203614         0.010610
 H         1.544656        -1.395043         2.352264
