19
Iteration:  1900
 C         3.880007         1.543170         2.714511
 C         3.071580         0.854464         1.671900
 O         3.364225        -0.535986         1.426908
 C         2.535134        -0.259042         0.199340
 C         2.614542         1.266717         0.275571
 C         1.556251         1.093248         1.429807
 C         1.120631        -0.122262         0.794706
 C        -0.029572        -0.169150        -0.259068
 O         0.858708        -1.152759         1.692051
 H         4.040545         1.021199         3.675514
 H         4.906096         1.791641         2.195589
 H         3.575922         2.599845         2.902289
 H         2.774724        -0.940215        -0.591100
 H         3.022768         2.072961        -0.392494
 H         0.893366         1.818314         2.053472
 H         0.276207         0.308178        -1.326305
 H        -0.226254        -1.296350        -0.531079
 H        -1.028314         0.210203         0.105985
 H         1.628651        -1.314720         2.170995
