19
Iteration:  1764charge 0 multiplicity 1
 C         3.897463         1.487846         2.753608
 C         3.049178         0.923396         1.706676
 O         3.318481        -0.528063         1.395366
 C         2.503511        -0.298959         0.129523
 C         2.682089         1.292789         0.294712
 C         1.613815         1.245250         1.365284
 C         1.119489        -0.187591         0.762640
 C        -0.042977        -0.214724        -0.224394
 O         0.862367        -1.162754         1.739902
 H         3.664632         0.836365         3.606607
 H         4.910890         1.568239         2.505420
 H         3.529419         2.532105         2.906825
 H         2.858659        -0.965701        -0.657023
 H         3.114036         2.062616        -0.431509
 H         0.925454         2.039629         1.801422
 H        -0.018745         0.632138        -0.849851
 H         0.044323        -1.241312        -0.793715
 H        -1.058998        -0.237051         0.291045
 H         1.680337        -1.409989         2.086157
