19
Iteration:  3051charge 0 multiplicity 1
 C         3.802719         1.533110         2.806244
 C         3.089645         0.933825         1.736747
 O         3.449974        -0.466729         1.356521
 C         2.567973        -0.345533         0.141174
 C         2.719537         1.290707         0.322869
 C         1.557988         1.176142         1.187954
 C         1.040093        -0.201794         0.750055
 C        -0.125798        -0.206787        -0.215389
 O         0.865229        -1.180841         1.793559
 H         3.841004         0.748100         3.563242
 H         4.855328         1.845900         2.582662
 H         3.353973         2.409900         3.377615
 H         2.852230        -1.067393        -0.673756
 H         2.953206         1.952097        -0.548819
 H         1.046055         1.870200         1.908215
 H         0.127341         0.526004        -1.115036
 H        -0.432130        -1.238127        -0.333522
 H        -0.917359         0.293518         0.184318
 H         1.868325        -1.395336         1.981167
