19
Iteration:  1648
 C         3.947174         1.670244         2.585977
 C         3.057792         0.930900         1.716390
 O         3.348071        -0.441038         1.472202
 C         2.515701        -0.304593         0.187328
 C         2.592756         1.215143         0.326626
 C         1.588141         1.095046         1.514628
 C         1.094672        -0.262827         0.799750
 C         0.044963         0.024816        -0.229810
 O         0.771150        -1.417353         1.602229
 H         3.746035         1.407657         3.656386
 H         5.022099         1.381805         2.280289
 H         4.001195         2.744852         2.428990
 H         2.973199        -0.981606        -0.597566
 H         2.939056         2.092537        -0.307618
 H         0.876027         1.694149         1.909026
 H         0.210656         0.847240        -0.991869
 H        -0.312338        -0.953435        -0.534589
 H        -0.809451         0.380070         0.343288
 H         1.759737        -1.574815         1.900101
