19
Iteration:   432
 C         3.927941         1.591365         2.772623
 C         3.027488         0.870764         1.705380
 O         3.316001        -0.536630         1.439933
 C         2.515041        -0.378072         0.076934
 C         2.694894         1.218667         0.257919
 C         1.577419         1.139976         1.312776
 C         1.117557        -0.136221         0.749113
 C        -0.065526        -0.168523        -0.160576
 O         0.875212        -1.135003         1.767725
 H         3.868844         1.384266         3.752700
 H         4.935439         1.657053         2.313403
 H         3.568324         2.662567         2.667811
 H         2.806827        -1.127541        -0.658377
 H         3.001609         2.020700        -0.421202
 H         0.847028         1.959957         1.683616
 H        -0.894591         0.058316         0.459176
 H        -0.052215         0.651918        -0.853417
 H        -0.099989        -1.110007        -0.778141
 H         1.834911        -1.333324         2.031070
