19
Iteration:  2565charge 0 multiplicity 1
 C         3.909530         1.673643         2.712901
 C         3.116432         0.940710         1.721875
 O         3.390633        -0.417732         1.422465
 C         2.567005        -0.293929         0.220820
 C         2.640749         1.226860         0.292185
 C         1.578266         1.082266         1.394401
 C         1.070081        -0.247851         0.808174
 C         0.011011        -0.035432        -0.236919
 O         0.749145        -1.411639         1.639791
 H         3.834449         1.264831         3.746051
 H         4.932940         1.747037         2.330749
 H         3.669194         2.781904         2.779206
 H         2.821209        -1.006311        -0.652253
 H         2.708549         2.082447        -0.471490
 H         0.891868         1.901187         1.676622
 H         0.285386         0.618820        -1.013905
 H        -0.207634        -1.072603        -0.631027
 H        -0.970890         0.250284         0.278126
 H         1.496691        -1.722108         2.088080
