19
Iteration:   212charge 0 multiplicity 1
 C         3.832361         1.622612         2.688088
 C         3.132373         0.891339         1.618967
 O         3.454349        -0.564839         1.319718
 C         2.516020        -0.352322         0.208648
 C         2.669105         1.231871         0.218908
 C         1.599965         1.077314         1.401147
 C         1.115414        -0.219539         0.812042
 C         0.007315        -0.139496        -0.215050
 O         0.703966        -1.076744         1.821680
 H         3.546014         1.396312         3.697853
 H         4.971475         1.397601         2.809912
 H         3.515191         2.682193         2.529741
 H         2.707584        -1.088452        -0.647331
 H         2.891531         2.005108        -0.476631
 H         1.162508         1.887815         2.113431
 H        -0.084805        -1.137561        -0.673826
 H        -0.938190         0.126986         0.347865
 H         0.096129         0.550836        -0.993044
 H         1.544616        -1.162011         2.319027
