19
Iteration:  3464
 C         3.882761         1.667487         2.699113
 C         3.098846         0.934689         1.733860
 O         3.506427        -0.423907         1.468578
 C         2.545288        -0.337591         0.193784
 C         2.606438         1.204549         0.293153
 C         1.528636         1.137483         1.394812
 C         1.109925        -0.260888         0.803437
 C        -0.051165        -0.136464        -0.320776
 O         0.755134        -1.303836         1.664717
 H         4.195855         0.930063         3.539895
 H         4.813927         2.172483         2.222400
 H         3.305447         2.467910         3.220340
 H         2.899675        -0.977065        -0.608077
 H         2.888346         2.067766        -0.388847
 H         1.035820         1.990484         1.831713
 H         0.109708         0.644398        -1.057825
 H        -0.105699        -1.043972        -0.921654
 H        -1.012367        -0.057109         0.256890
 H         1.451621        -1.330131         2.290617
