19
Iteration:   322charge 0 multiplicity 1
 C         3.989043         1.699983         2.646016
 C         3.116672         0.886625         1.712459
 O         3.364989        -0.512686         1.414914
 C         2.474062        -0.316034         0.233767
 C         2.599359         1.199093         0.313638
 C         1.585054         1.073680         1.426267
 C         1.096416        -0.199889         0.829035
 C        -0.002513        -0.099223        -0.226156
 O         0.768497        -1.228397         1.643511
 H         4.128382         1.232140         3.627729
 H         4.970572         1.933592         2.120044
 H         3.624175         2.753527         2.712695
 H         2.692725        -1.024362        -0.618317
 H         2.796603         1.866686        -0.564726
 H         0.986526         1.734655         1.897421
 H        -0.883892         0.342555         0.148919
 H         0.298880         0.521063        -1.059176
 H        -0.206751        -1.143275        -0.507973
 H         1.571258        -1.556707         2.177133
