19
Iteration:  3890
 C         3.961082         1.766694         2.648594
 C         3.103030         0.966922         1.693554
 O         3.385607        -0.463252         1.369120
 C         2.559545        -0.319783         0.237734
 C         2.514718         1.264335         0.382215
 C         1.496010         1.091979         1.461340
 C         1.094717        -0.333337         0.857257
 C         0.190705        -0.067386        -0.386238
 O         0.695125        -1.412012         1.749731
 H         4.226288         1.315695         3.733497
 H         4.845384         1.944797         1.977611
 H         3.375056         2.732294         2.778448
 H         2.838451        -0.920032        -0.637578
 H         2.809952         2.033135        -0.238142
 H         0.851708         1.857199         1.918547
 H         0.505668         0.558242        -1.372266
 H        -0.032763        -1.072370        -0.868311
 H        -0.738253         0.394076        -0.204642
 H         1.398990        -1.545047         2.370823
