19
Iteration:  1462charge 0 multiplicity 1
 C         3.954086         1.584334         2.716737
 C         3.038325         0.903642         1.730661
 O         3.395604        -0.528577         1.361504
 C         2.552766        -0.334908         0.198565
 C         2.670739         1.224780         0.217064
 C         1.602011         1.117748         1.348085
 C         1.040286        -0.199379         0.771063
 C        -0.006222        -0.145609        -0.229412
 O         0.732236        -1.135427         1.833965
 H         3.523926         1.503607         3.709772
 H         4.932532         1.198863         2.605504
 H         4.051180         2.631357         2.315538
 H         2.766276        -0.906456        -0.660005
 H         3.131235         1.999079        -0.341801
 H         0.941510         2.031207         1.703525
 H        -0.793386        -0.806763         0.089247
 H        -0.166676         0.892104        -0.452321
 H         0.222999        -0.549786        -1.235556
 H         1.531206        -1.441173         2.196324
