19
Iteration:   369charge 0 multiplicity 1
 C         3.760558         1.496309         2.829047
 C         3.125502         0.931698         1.609213
 O         3.500502        -0.481306         1.247650
 C         2.547463        -0.353520         0.127315
 C         2.694458         1.243712         0.204668
 C         1.554901         1.162126         1.366807
 C         1.099275        -0.204563         0.802747
 C        -0.051439        -0.204618        -0.164341
 O         0.797514        -1.118839         1.828572
 H         3.234141         0.988071         3.809723
 H         4.883639         1.405582         2.903131
 H         3.732897         2.631800         2.776836
 H         2.714001        -0.999567        -0.699499
 H         2.739353         2.005348        -0.556179
 H         0.993724         1.949882         2.062043
 H        -0.644093         0.704351         0.028947
 H         0.337612        -0.078302        -1.147206
 H        -0.785184        -1.036989        -0.021622
 H         1.678547        -1.084879         2.396524
