19
Iteration:  1396charge 0 multiplicity 1
 C         4.007051         1.772639         2.462871
 C         3.092344         0.914043         1.742746
 O         3.494807        -0.534323         1.445591
 C         2.558604        -0.380316         0.304100
 C         2.681453         1.190252         0.348244
 C         1.575458         1.027234         1.451167
 C         1.054659        -0.256830         0.839703
 C         0.071703         0.076440        -0.244179
 O         0.496807        -1.347466         1.670865
 H         4.211404         1.532757         3.511354
 H         4.917383         1.839760         1.951127
 H         3.562406         2.839314         2.376603
 H         2.709148        -1.064435        -0.471750
 H         2.869502         2.041943        -0.379631
 H         0.930152         1.912796         1.911892
 H        -0.997444        -0.074533         0.151542
 H         0.449269         0.995652        -0.740030
 H         0.054559        -0.754767        -1.025834
 H         1.341298        -1.557533         2.089258
