19
Iteration:  3010
 C         3.894506         1.754231         2.645417
 C         3.132338         0.878740         1.658723
 O         3.396183        -0.478555         1.395949
 C         2.518270        -0.353181         0.261349
 C         2.582493         1.175833         0.321071
 C         1.546593         1.041061         1.491507
 C         1.158417        -0.249764         0.800642
 C         0.080375        -0.005171        -0.251708
 O         0.720718        -1.302223         1.628751
 H         3.721990         1.416230         3.729306
 H         4.974085         1.815857         2.436469
 H         3.702819         2.865143         2.502451
 H         2.747823        -0.991493        -0.584200
 H         2.555086         2.017890        -0.328126
 H         1.149161         1.788198         2.280958
 H         0.175971         0.926173        -0.920036
 H         0.068173        -0.961312        -0.899701
 H        -0.952418        -0.065015         0.163942
 H         1.444855        -1.492094         2.183636
