19
Iteration:  4893charge 0 multiplicity 1
 C         3.767861         1.652689         2.718472
 C         3.059153         0.876402         1.714920
 O         3.336236        -0.511514         1.600818
 C         2.543409        -0.414363         0.227252
 C         2.795008         1.095691         0.244967
 C         1.648900         1.262299         1.113545
 C         1.132970        -0.154618         0.789330
 C        -0.019802        -0.179546        -0.345798
 O         0.751339        -1.114046         1.801509
 H         3.924011         0.839326         3.474479
 H         4.773764         2.026557         2.442409
 H         3.192812         2.364381         3.274142
 H         2.888741        -1.162606        -0.523872
 H         3.260360         1.810303        -0.505471
 H         0.961711         2.102445         1.319171
 H         0.362912         0.126856        -1.265230
 H        -0.121417        -1.253797        -0.369743
 H        -0.880099         0.415760        -0.205490
 H         1.517409        -1.183783         2.462869
