19
Iteration:  4876charge 0 multiplicity 1
 C         3.734312         1.512461         2.909648
 C         3.102686         1.005341         1.614529
 O         3.337986        -0.472182         1.456801
 C         2.616023        -0.433597         0.269189
 C         2.805359         1.122272         0.087058
 C         1.607422         1.190761         1.151597
 C         1.058225        -0.195992         0.764221
 C         0.081142        -0.284272        -0.298208
 O         0.692797        -0.971781         1.903483
 H         4.034769         0.637536         3.501745
 H         4.605206         2.136883         2.696690
 H         3.042931         2.238233         3.429955
 H         2.823444        -1.189240        -0.489268
 H         3.083925         1.817798        -0.700206
 H         1.194170         2.127675         1.466381
 H         0.569385         0.104436        -1.302975
 H        -0.258509        -1.361806        -0.532551
 H        -0.774539         0.468172        -0.076098
 H         1.535366        -1.136438         2.355746
