19
Iteration:  1191
 C         4.003850         1.804012         2.507011
 C         3.165064         0.911872         1.688492
 O         3.362292        -0.493205         1.480055
 C         2.538276        -0.375590         0.282204
 C         2.574965         1.162948         0.368922
 C         1.665749         1.072143         1.525522
 C         1.113625        -0.286122         0.814983
 C         0.072655        -0.010018        -0.269370
 O         0.568624        -1.301757         1.602339
 H         4.245679         1.268454         3.430080
 H         4.938366         2.021358         2.019558
 H         3.377408         2.754148         2.640397
 H         2.890758        -1.026998        -0.451260
 H         2.780492         1.849263        -0.393705
 H         0.844858         1.741998         1.965902
 H        -0.875702         0.592950         0.129044
 H         0.488140         0.603843        -1.024477
 H        -0.216125        -1.018054        -0.639469
 H         1.430133        -1.689037         2.082861
