19
Iteration:   417charge 0 multiplicity 1
 C         3.811719         1.524565         2.705383
 C         3.019234         0.906971         1.654786
 O         3.322785        -0.505151         1.383977
 C         2.557085        -0.293364         0.206948
 C         2.762927         1.239103         0.240364
 C         1.588361         1.208911         1.262360
 C         1.099332        -0.228063         0.788708
 C        -0.133148        -0.153425        -0.156865
 O         0.940004        -1.171063         1.791984
 H         3.409755         0.915234         3.709088
 H         4.880351         1.309573         2.505211
 H         3.806127         2.577060         2.862879
 H         2.776917        -1.019286        -0.623686
 H         3.278857         2.005053        -0.368188
 H         1.080451         1.989692         1.673285
 H        -1.061875         0.249432         0.338806
 H         0.111147         0.414624        -1.112669
 H        -0.394903        -1.184964        -0.379819
 H         1.857363        -1.155112         2.243661
