19
Iteration:  4389charge 0 multiplicity 1
 C         3.811242         1.508409         2.782006
 C         3.007164         0.982561         1.677317
 O         3.373079        -0.486918         1.425802
 C         2.630057        -0.267232         0.152727
 C         2.612624         1.317405         0.326067
 C         1.533503         1.210341         1.350984
 C         1.080564        -0.141339         0.747939
 C         0.008663        -0.447670        -0.280566
 O         0.890201        -1.134892         1.742236
 H         3.532707         1.241531         3.890027
 H         4.849097         1.226196         2.734185
 H         3.788574         2.643131         2.783671
 H         2.993341        -0.857134        -0.704011
 H         2.989197         2.048753        -0.425809
 H         0.919156         2.084569         1.673510
 H         0.320985         0.005201        -1.239860
 H        -0.241318        -1.455766        -0.401224
 H        -0.956927         0.008186        -0.071537
 H         1.800073        -1.203817         2.082490
