19
Iteration:  1493charge 0 multiplicity 1
 C         3.858860         1.505135         2.747186
 C         3.061700         0.840663         1.685505
 O         3.256533        -0.506099         1.423874
 C         2.509837        -0.316476         0.153744
 C         2.806629         1.210706         0.221095
 C         1.650873         1.222808         1.314570
 C         1.047808        -0.135306         0.741627
 C        -0.145429        -0.250511        -0.187374
 O         0.928754        -1.110830         1.767657
 H         3.582436         1.264677         3.817059
 H         4.906927         1.312614         2.704348
 H         3.499658         2.627199         2.666969
 H         2.833802        -0.940430        -0.618258
 H         3.312511         1.997874        -0.321212
 H         1.171272         2.267812         1.601461
 H        -0.964297        -0.559382         0.410018
 H        -0.420627         0.836431        -0.463534
 H         0.141754        -0.972414        -1.039076
 H         1.900880        -1.152695         2.145491
