19
Iteration:  4669charge 0 multiplicity 1
 C         3.805068         1.586528         2.793405
 C         2.985123         1.016348         1.651075
 O         3.382581        -0.458052         1.466872
 C         2.562169        -0.390231         0.284080
 C         2.699763         1.208366         0.179601
 C         1.576011         1.217961         1.252074
 C         1.152676        -0.258740         0.780904
 C         0.098410        -0.211633        -0.322010
 O         0.744762        -1.190839         1.783785
 H         3.699631         2.667179         2.946472
 H         3.406963         1.071505         3.749398
 H         4.902593         1.201484         2.671661
 H         2.714634        -1.144371        -0.510439
 H         2.968205         1.879006        -0.603065
 H         1.168822         2.198833         1.559016
 H         0.448432         0.424094        -1.096532
 H         0.092015        -1.207159        -0.741193
 H        -0.905061         0.044933         0.109873
 H         1.328007        -1.037767         2.561441
