19
Iteration:  4504charge 0 multiplicity 1
 C         3.944989         1.876516         2.544216
 C         3.019539         0.910599         1.813910
 O         3.304617        -0.506230         1.532189
 C         2.631330        -0.399454         0.333737
 C         2.672853         1.246473         0.348963
 C         1.599719         1.115297         1.429742
 C         1.104350        -0.217723         0.737739
 C         0.012800        -0.189273        -0.285773
 O         0.724664        -1.313456         1.524655
 H         4.726554         1.265511         2.901128
 H         4.409916         2.682473         1.892248
 H         3.275704         2.177681         3.373190
 H         2.935393        -1.078657        -0.466393
 H         3.206467         2.142046        -0.092271
 H         0.956443         1.802609         1.940496
 H         0.112970         0.629553        -0.917199
 H        -0.093189        -1.176996        -0.866769
 H        -0.979433        -0.086078         0.317674
 H         1.562596        -1.620736         2.025544
