19
Iteration:  3355
 C         3.849882         1.720961         2.821795
 C         3.128916         0.913051         1.684627
 O         3.431793        -0.472393         1.410965
 C         2.602476        -0.314980         0.192639
 C         2.666000         1.263895         0.278118
 C         1.599633         1.105720         1.353479
 C         1.079349        -0.269533         0.667300
 C        -0.110856        -0.149260        -0.259295
 O         0.794228        -1.308570         1.709672
 H         3.292641         1.581400         3.754068
 H         4.949739         1.517495         2.826393
 H         3.736609         2.823290         2.654862
 H         2.879680        -1.037222        -0.589147
 H         3.023522         2.096170        -0.460097
 H         0.978497         1.689832         1.995626
 H        -0.087222         0.725431        -0.870849
 H        -0.356340        -1.096435        -0.688215
 H        -1.020314         0.025047         0.426703
 H         1.621570        -1.337402         2.236770
