19
Iteration:  2364charge 0 multiplicity 1
 C         3.840027         1.489084         2.775881
 C         3.099737         0.963638         1.602898
 O         3.462290        -0.406584         1.303380
 C         2.562334        -0.308205         0.190904
 C         2.639672         1.291316         0.318071
 C         1.551011         1.078748         1.327970
 C         1.107433        -0.277498         0.790951
 C         0.037117        -0.236912        -0.248628
 O         0.720849        -1.100858         1.795373
 H         3.515684         0.936632         3.713548
 H         4.989826         1.443072         2.682522
 H         3.519132         2.521110         2.959464
 H         2.696571        -1.056932        -0.593715
 H         3.001829         2.154305        -0.350967
 H         1.019207         1.697610         1.963559
 H         0.120586         0.571965        -1.045528
 H         0.054406        -1.216393        -0.747905
 H        -0.840868         0.005943         0.347379
 H         1.361337        -1.197821         2.474126
