19
Iteration:  3548charge 0 multiplicity 1
 C         3.782602         1.576677         2.916273
 C         3.017538         0.942624         1.647776
 O         3.341654        -0.469790         1.298163
 C         2.608007        -0.182455         0.104046
 C         2.723059         1.294464         0.245200
 C         1.597512         1.135187         1.277336
 C         1.148053        -0.256274         0.765277
 C        -0.008436        -0.315837        -0.143773
 O         0.823577        -1.179120         1.783350
 H         3.199921         1.521600         3.762971
 H         4.648573         0.991856         3.110187
 H         4.089616         2.613431         2.708034
 H         3.083743        -0.727230        -0.755992
 H         2.941239         2.036657        -0.621290
 H         1.017606         1.938365         1.661960
 H         0.010739         0.227583        -1.012444
 H        -0.299418        -1.341799        -0.265322
 H        -0.910112         0.228530         0.404811
 H         1.570631        -1.698202         2.038699
