19
Iteration:  3270charge 0 multiplicity 1
 C         3.771607         1.532319         2.799320
 C         3.082431         0.926730         1.671678
 O         3.500159        -0.420124         1.277723
 C         2.571963        -0.304284         0.193491
 C         2.635005         1.305147         0.258320
 C         1.594119         1.172015         1.331794
 C         1.147167        -0.263984         0.821091
 C         0.025815        -0.298314        -0.202161
 O         0.653936        -1.132247         1.795434
 H         3.918557         0.774196         3.563249
 H         4.824188         1.657340         2.616004
 H         3.350523         2.463140         3.108752
 H         2.805002        -0.937184        -0.667449
 H         3.091529         2.203700        -0.311398
 H         0.955736         1.905828         1.716980
 H         0.510519         0.373355        -1.104428
 H        -0.157518        -1.304285        -0.687234
 H        -0.838026         0.218586         0.162700
 H         1.548131        -1.609687         2.035461
