19
Iteration:    64charge 0 multiplicity 1
 C         4.128329         1.766911         2.492413
 C         3.114730         0.976286         1.741037
 O         3.419721        -0.486768         1.440979
 C         2.488262        -0.462361         0.346576
 C         2.624237         1.028554         0.204034
 C         1.651864         1.132262         1.409492
 C         1.138782        -0.215627         0.924018
 C         0.062685        -0.010922        -0.292952
 O         0.464321        -1.246489         1.737905
 H         4.024430         1.386859         3.596989
 H         5.094257         1.584475         2.144242
 H         4.068924         2.927791         2.423386
 H         2.588424        -1.156675        -0.531834
 H         2.557112         1.700108        -0.624130
 H         1.033889         2.030462         1.690068
 H        -0.230999         0.988839        -0.534354
 H         0.491825        -0.463641        -1.134337
 H        -0.984046        -0.497930         0.022458
 H         1.114070        -1.617504         2.284786
