19
Iteration:  2547charge 0 multiplicity 1
 C         4.025121         1.717071         2.555269
 C         3.022189         1.026197         1.740100
 O         3.453829        -0.459146         1.510562
 C         2.574645        -0.399986         0.310042
 C         2.505358         1.241515         0.326193
 C         1.495899         1.095857         1.510162
 C         1.161680        -0.305655         0.771643
 C         0.056147        -0.076153        -0.262465
 O         0.671250        -1.330068         1.532925
 H         4.157838         1.192334         3.513392
 H         4.980569         1.774442         2.056234
 H         3.605648         2.582267         2.970909
 H         3.025101        -0.852674        -0.592160
 H         2.763998         2.056010        -0.348737
 H         0.908073         1.763631         2.054451
 H         0.366759         0.732938        -0.935053
 H        -0.081590        -0.922760        -0.900859
 H        -0.811750         0.274092         0.367688
 H         1.400524        -1.827175         1.795286
