19
Iteration:  2307
 C         3.991414         1.787312         2.491150
 C         3.037381         0.940430         1.791514
 O         3.376702        -0.506191         1.528195
 C         2.568481        -0.409429         0.256250
 C         2.648137         1.188052         0.361725
 C         1.580784         1.039551         1.508143
 C         1.144899        -0.237175         0.818231
 C         0.028998         0.035541        -0.293855
 O         0.672394        -1.345722         1.538407
 H         4.604067         1.261810         3.324794
 H         4.622255         2.163487         1.668138
 H         3.471053         2.647376         2.980705
 H         2.766360        -1.332382        -0.349581
 H         2.828671         1.962944        -0.311357
 H         0.952109         1.943127         1.767486
 H         0.198815         0.818462        -0.937182
 H        -0.096450        -0.906653        -0.863500
 H        -1.025727         0.028945         0.190881
 H         1.304776        -1.360172         2.355805
