19
Iteration:  2987
 C         4.006452         1.823624         2.552224
 C         3.070267         0.941239         1.754337
 O         3.546858        -0.431886         1.434420
 C         2.536800        -0.319917         0.247757
 C         2.639962         1.227598         0.379199
 C         1.566552         1.094512         1.506311
 C         1.045738        -0.336495         0.855177
 C         0.012819        -0.016649        -0.264304
 O         0.543276        -1.476521         1.612794
 H         3.751314         1.586815         3.623056
 H         5.035310         1.433761         2.349878
 H         4.164886         2.958198         2.299878
 H         2.710822        -0.978537        -0.640392
 H         2.992569         2.043043        -0.336500
 H         0.841124         1.915918         1.823824
 H         0.369418         1.043518        -0.747260
 H         0.164824        -0.744851        -1.147869
 H        -1.050599        -0.060622        -0.118510
 H         1.442696        -1.903272         1.865508
