19
Iteration:  1187charge 0 multiplicity 1
 C         3.997682         1.820197         2.499708
 C         3.164694         0.897001         1.703069
 O         3.366813        -0.482362         1.460620
 C         2.529088        -0.388672         0.288269
 C         2.590642         1.160735         0.368142
 C         1.631434         1.053811         1.554258
 C         1.134376        -0.286921         0.842710
 C         0.086091        -0.002688        -0.322983
 O         0.564361        -1.297533         1.618752
 H         4.328148         1.327829         3.432463
 H         4.951184         2.149101         2.065035
 H         3.381331         2.704317         2.544823
 H         2.837040        -1.076608        -0.566483
 H         2.802160         1.971554        -0.373939
 H         1.052289         1.739108         2.042050
 H        -0.747562         0.423226         0.171460
 H         0.517659         0.588095        -1.137947
 H        -0.457084        -0.892371        -0.564410
 H         1.236890        -1.768258         2.010265
