19
Iteration:   670charge 0 multiplicity 1
 C         3.967675         1.570336         2.718318
 C         3.064006         0.890250         1.710732
 O         3.310876        -0.511358         1.433542
 C         2.592374        -0.269115         0.101561
 C         2.680161         1.247093         0.208706
 C         1.607642         1.132563         1.321837
 C         1.047757        -0.162099         0.845768
 C        -0.088939        -0.205686        -0.221262
 O         0.815765        -1.166487         1.784254
 H         3.690971         1.093344         3.679791
 H         5.024637         1.607776         2.417886
 H         3.620357         2.682100         2.856375
 H         2.869651        -0.968143        -0.620205
 H         3.097616         1.987863        -0.493481
 H         0.927820         1.861115         1.994752
 H        -1.159954        -0.258444         0.143299
 H         0.113470         0.738366        -0.758601
 H         0.062367        -1.115839        -1.011677
 H         1.690258        -1.484788         2.167304
