19
Iteration:  3247
 C         3.872797         1.680949         2.722878
 C         3.128589         0.951012         1.673958
 O         3.390875        -0.477691         1.377762
 C         2.575360        -0.266337         0.193242
 C         2.591879         1.224327         0.275781
 C         1.617184         1.015136         1.456595
 C         1.121960        -0.204218         0.794644
 C         0.080628        -0.104261        -0.328276
 O         0.663759        -1.315569         1.779188
 H         4.107026         1.101567         3.569848
 H         4.872433         1.863438         2.323711
 H         3.435868         2.666474         2.906805
 H         2.781788        -0.828344        -0.726083
 H         2.674706         1.993543        -0.462777
 H         0.945937         1.636260         2.034792
 H         0.512617         0.334586        -1.316769
 H        -0.084985        -1.150147        -0.635897
 H        -0.871409         0.388308        -0.011264
 H         1.303431        -1.141686         2.429641
