19
Iteration:  2709charge 0 multiplicity 1
 C         3.956387         1.773249         2.582069
 C         3.073630         0.856206         1.772116
 O         3.450606        -0.485906         1.401870
 C         2.578295        -0.350611         0.209557
 C         2.605176         1.204147         0.346730
 C         1.544078         1.047532         1.495546
 C         1.118855        -0.218793         0.770657
 C         0.076298        -0.044279        -0.313044
 O         0.642116        -1.309278         1.685982
 H         4.091300         1.340378         3.593760
 H         4.913552         2.064253         2.102747
 H         3.402626         2.676633         2.818889
 H         2.651018        -1.167851        -0.537679
 H         2.912702         2.034717        -0.271189
 H         0.823443         1.701710         2.072182
 H         0.299420         0.644088        -1.046717
 H        -0.238942        -0.905742        -0.861622
 H        -0.860893         0.324416         0.216082
 H         1.503749        -1.470610         2.230918
