19
Iteration:  1381charge 0 multiplicity 1
 C         4.010881         1.820677         2.447306
 C         3.079330         0.815047         1.752434
 O         3.397863        -0.531823         1.484247
 C         2.554627        -0.395353         0.257801
 C         2.626910         1.159292         0.401841
 C         1.580780         1.138420         1.482134
 C         1.080792        -0.282758         0.809333
 C         0.002864         0.004303        -0.267669
 O         0.631569        -1.275558         1.637053
 H         4.362836         1.445871         3.433691
 H         4.959204         1.974642         1.842196
 H         3.505135         2.740020         2.655632
 H         2.964518        -1.029288        -0.583515
 H         3.235658         1.841413        -0.164196
 H         1.089666         1.852439         1.968755
 H        -0.776568         0.482239         0.148761
 H         0.236215         0.876912        -0.913571
 H        -0.191625        -0.877503        -0.889440
 H         1.314581        -1.777927         2.055170
