19
Iteration:  4147
 C         3.654154         1.590184         2.824287
 C         3.049146         0.987890         1.638920
 O         3.414511        -0.434912         1.368579
 C         2.617866        -0.315240         0.200553
 C         2.723212         1.229072         0.178118
 C         1.583293         1.124295         1.283485
 C         1.171051        -0.201413         0.798833
 C        -0.017802        -0.129950        -0.220097
 O         0.859041        -1.308776         1.775652
 H         3.888237         0.830710         3.511166
 H         4.605545         2.186806         2.685243
 H         3.003833         2.238400         3.459579
 H         2.882884        -1.122024        -0.532000
 H         2.840171         2.003899        -0.625074
 H         0.666074         1.739836         1.662869
 H        -0.089586         0.763357        -0.697625
 H        -0.042277        -1.025308        -0.869246
 H        -0.846443        -0.064857         0.578648
 H         1.766327        -1.333420         2.149872
