19
Iteration:   131
 C         3.941290         1.692457         2.669046
 C         3.098588         0.837328         1.672735
 O         3.360960        -0.605454         1.394158
 C         2.510618        -0.387311         0.221756
 C         2.746463         1.200100         0.270210
 C         1.615537         1.197118         1.221379
 C         1.108407        -0.178051         0.818340
 C        -0.091876        -0.149904        -0.231935
 O         0.728612        -1.116758         1.859745
 H         3.839094         1.258444         3.713195
 H         4.994041         1.792744         2.292236
 H         3.596528         2.755926         2.703711
 H         2.780269        -1.054728        -0.533834
 H         3.170695         1.921025        -0.458106
 H         1.000408         1.785133         1.774390
 H         0.225236        -0.072901        -1.313410
 H        -0.665340        -1.041797        -0.131994
 H        -0.751006         0.807122        -0.032712
 H         1.640361        -1.403418         2.314679
