19
Iteration:  2822charge 0 multiplicity 1
 C         3.858073         1.518229         2.825585
 C         3.070402         0.907859         1.694843
 O         3.383348        -0.529517         1.324107
 C         2.508309        -0.333499         0.166707
 C         2.690360         1.308649         0.303467
 C         1.571363         1.213049         1.314254
 C         1.058457        -0.199838         0.789257
 C        -0.082360        -0.204975        -0.345596
 O         0.918724        -1.154358         1.882919
 H         3.492675         1.079465         3.727187
 H         4.931650         1.560623         2.597785
 H         3.573409         2.587053         2.746037
 H         2.710422        -0.847569        -0.765918
 H         2.855330         1.986709        -0.471706
 H         1.006002         1.987812         1.756616
 H         0.126582         0.592818        -1.178935
 H        -0.035419        -1.242983        -0.675085
 H        -1.014931        -0.165889         0.066499
 H         1.843192        -1.372059         1.994889
