19
Iteration:   326
 C         3.948982         1.700737         2.653856
 C         3.128289         0.903351         1.724419
 O         3.358523        -0.519815         1.375494
 C         2.470602        -0.323174         0.196767
 C         2.633550         1.206514         0.303777
 C         1.551311         1.046993         1.428454
 C         1.129595        -0.197340         0.833575
 C         0.005930        -0.111334        -0.224998
 O         0.779200        -1.195824         1.668475
 H         4.270736         1.232891         3.715009
 H         4.984369         1.769144         2.238978
 H         3.541981         2.750523         2.686792
 H         2.677764        -1.047037        -0.545304
 H         2.782155         1.871251        -0.540163
 H         0.934721         1.814193         2.052389
 H        -0.929345         0.360094         0.160946
 H         0.412684         0.420410        -1.089013
 H        -0.384601        -1.133691        -0.487722
 H         1.499610        -1.561478         2.199765
