19
Iteration:  4561
 C         3.856264         1.635807         2.672911
 C         3.024564         0.948654         1.633052
 O         3.443931        -0.412106         1.469426
 C         2.557752        -0.398511         0.289403
 C         2.538202         1.244375         0.221828
 C         1.527605         1.138907         1.373904
 C         1.153888        -0.237316         0.886051
 C         0.270000        -0.148549        -0.311997
 O         0.666414        -1.270999         1.711998
 H         4.881214         1.418747         2.619817
 H         3.732267         2.699925         2.719739
 H         3.622002         1.284509         3.690117
 H         2.778650        -1.044821        -0.574344
 H         2.533401         1.971560        -0.546103
 H         0.741816         1.922392         1.618415
 H         0.616185         0.559239        -1.111918
 H        -0.078973        -1.064975        -0.762218
 H        -0.697178         0.326317         0.115604
 H         1.380127        -1.608024         2.236450
