19
Iteration:  2656charge 0 multiplicity 1
 C         3.741720         1.397998         2.876967
 C         3.054689         0.952661         1.626486
 O         3.333635        -0.450038         1.356353
 C         2.575263        -0.292281         0.179010
 C         2.673097         1.264770         0.197271
 C         1.628544         1.211417         1.276296
 C         1.130208        -0.097061         0.810329
 C        -0.043391        -0.353070        -0.167890
 O         0.928341        -1.091666         1.727918
 H         3.428116         0.679318         3.649368
 H         4.797894         1.249759         2.563511
 H         3.765026         2.406071         3.167314
 H         2.679868        -1.054776        -0.589114
 H         2.759177         2.152926        -0.371915
 H         1.095793         2.077479         1.772628
 H         0.074930         0.449751        -0.967277
 H        -0.100450        -1.278217        -0.697987
 H        -1.066331        -0.160572         0.261962
 H         1.672212        -1.122481         2.362202
