19
Iteration:  4653charge 0 multiplicity 1
 C         3.807996         1.539665         2.877502
 C         3.115352         0.962195         1.693540
 O         3.332569        -0.438695         1.491567
 C         2.589011        -0.345052         0.222788
 C         2.762763         1.193744         0.233637
 C         1.505904         1.272226         1.076136
 C         1.041196        -0.180734         0.812056
 C        -0.010040        -0.282339        -0.288702
 O         0.847091        -1.190450         1.794894
 H         4.015653         2.603158         2.635097
 H         3.172370         1.443522         3.767222
 H         4.752475         1.075688         2.936194
 H         3.030482        -0.978149        -0.558986
 H         3.294180         1.806117        -0.563703
 H         0.776448         2.027198         1.340566
 H         0.238467         0.558453        -1.019914
 H        -0.225531        -1.302480        -0.768166
 H        -0.980950         0.014871         0.107347
 H         1.719024        -1.358086         2.109373
