19
Iteration:  4671charge 0 multiplicity 1
 C         3.802720         1.590423         2.787821
 C         2.989690         1.017601         1.656230
 O         3.379288        -0.451189         1.467862
 C         2.554479        -0.416902         0.279729
 C         2.688506         1.219685         0.182354
 C         1.594419         1.193072         1.273071
 C         1.157626        -0.253077         0.790381
 C         0.110268        -0.209391        -0.329479
 O         0.735913        -1.181752         1.781637
 H         3.667562         2.666416         2.947009
 H         3.436031         1.065046         3.646738
 H         4.845695         1.263699         2.600472
 H         2.749873        -1.153464        -0.523366
 H         2.952441         1.934120        -0.632787
 H         1.192112         2.132434         1.587146
 H         0.474130         0.492564        -1.166647
 H         0.079766        -1.200364        -0.681281
 H        -0.857246         0.010317         0.096057
 H         1.256290        -1.042243         2.541682
