19
Iteration:  3188charge 0 multiplicity 1
 C         4.048584         1.845033         2.558675
 C         3.137879         0.968727         1.674797
 O         3.307568        -0.431493         1.560944
 C         2.612939        -0.371913         0.265737
 C         2.594612         1.157379         0.389894
 C         1.575498         1.036329         1.512080
 C         1.148578        -0.286844         0.760524
 C         0.035570        -0.046026        -0.239784
 O         0.638989        -1.398782         1.508644
 H         3.793389         1.706952         3.656872
 H         5.076346         1.589405         2.211705
 H         3.847096         2.919098         2.370959
 H         2.789325        -1.057926        -0.573612
 H         2.662352         2.127395        -0.257776
 H         0.914615         1.785620         1.959514
 H         0.143676         0.875234        -0.729409
 H        -0.253497        -0.836982        -0.943176
 H        -1.026994         0.223107         0.425683
 H         1.477342        -1.952754         1.791918
