19
Iteration:  1986charge 0 multiplicity 1
 C         3.724356         1.621371         2.873708
 C         3.095702         0.859529         1.665297
 O         3.395829        -0.556093         1.245616
 C         2.536970        -0.259018         0.022248
 C         2.782981         1.248567         0.292504
 C         1.645937         1.170581         1.244539
 C         1.100520        -0.201947         0.828656
 C        -0.132087        -0.214617        -0.101052
 O         0.850942        -1.176307         1.800335
 H         3.222705         1.249411         3.755191
 H         4.845260         1.364480         2.841132
 H         3.548328         2.693848         2.966571
 H         2.952480        -0.797444        -0.854827
 H         3.127143         2.180626        -0.186292
 H         1.114923         2.064860         1.816729
 H         0.119518         0.705579        -0.747423
 H        -0.172773        -1.052541        -0.862819
 H        -1.038127        -0.199564         0.405562
 H         1.696681        -1.451635         2.298242
