19
Iteration:  3978
 C         3.588719         1.502887         2.831506
 C         3.024512         0.919628         1.618734
 O         3.365008        -0.492514         1.473050
 C         2.569191        -0.293372         0.147723
 C         2.644073         1.302009         0.222414
 C         1.583476         1.180270         1.218639
 C         1.162404        -0.219804         0.752950
 C        -0.082058        -0.191879        -0.120877
 O         1.055124        -1.181078         1.701543
 H         3.175491         0.937875         3.782439
 H         4.714493         1.515625         2.711369
 H         3.508293         2.618400         2.723771
 H         2.892830        -1.086806        -0.522247
 H         3.196825         1.979300        -0.454670
 H         1.080469         1.882767         1.932841
 H         0.026078         0.776573        -0.760524
 H        -0.042111        -1.076444        -0.771768
 H        -0.804468        -0.193769         0.594879
 H         2.062976        -1.234754         1.998759
