19
Iteration:  1125
 C         3.958686         1.682373         2.652008
 C         3.108419         0.977058         1.634812
 O         3.407592        -0.429668         1.398307
 C         2.570073        -0.408088         0.230614
 C         2.645058         1.226943         0.279976
 C         1.644053         1.009429         1.406581
 C         1.078368        -0.248517         0.881371
 C         0.042116        -0.069788        -0.269734
 O         0.632147        -1.271038         1.697639
 H         3.716831         1.169285         3.603402
 H         4.957142         1.448082         2.430087
 H         3.825872         2.799673         2.871905
 H         2.906003        -0.993063        -0.587415
 H         2.660300         2.043842        -0.458574
 H         1.060223         1.735944         1.921040
 H        -0.915823         0.535830         0.068300
 H         0.307785         0.422261        -1.172041
 H        -0.223881        -1.067922        -0.466547
 H         0.923774        -1.183361         2.550732
