19
Iteration:  3838charge 0 multiplicity 1
 C         3.963873         1.914520         2.685709
 C         3.074928         0.958409         1.712109
 O         3.387952        -0.460649         1.486253
 C         2.569402        -0.305836         0.232511
 C         2.761693         1.210061         0.314361
 C         1.539329         1.076284         1.361323
 C         1.131205        -0.373288         0.798504
 C        -0.045683        -0.076905        -0.141456
 O         0.678250        -1.458038         1.525309
 H         3.511753         1.625761         3.605893
 H         4.977079         1.682854         2.530588
 H         3.824305         2.886730         2.220972
 H         3.037027        -0.987621        -0.446262
 H         2.979747         2.059224        -0.223117
 H         0.913740         1.936667         1.736899
 H         0.197836         0.882338        -0.842548
 H        -0.451420        -0.836727        -0.902497
 H        -0.912303         0.060637         0.516062
 H         1.340344        -1.725606         2.147536
