19
Iteration:   295
 C         4.072395         1.692011         2.530376
 C         3.067252         0.975721         1.667617
 O         3.322199        -0.418736         1.508325
 C         2.547958        -0.332801         0.292212
 C         2.708984         1.236031         0.313241
 C         1.587456         1.169976         1.412949
 C         1.102900        -0.310702         0.860183
 C        -0.036541        -0.049958        -0.240834
 O         0.673399        -1.444602         1.615593
 H         4.153053         1.055736         3.422454
 H         4.834571         1.871996         1.826428
 H         3.910867         2.707022         2.807985
 H         2.756401        -1.121072        -0.398315
 H         2.977269         1.897637        -0.476040
 H         0.919150         2.034943         1.887374
 H        -1.074047        -0.041907         0.258679
 H         0.010093         1.050812        -0.451505
 H         0.095106        -0.676168        -1.151081
 H         1.293139        -1.799641         2.351205
