19
Iteration:  4547charge 0 multiplicity 1
 C         3.921314         1.699372         2.624507
 C         3.033467         1.045014         1.704583
 O         3.387135        -0.406458         1.440923
 C         2.579320        -0.365990         0.326116
 C         2.630885         1.259516         0.350602
 C         1.517332         1.137345         1.366970
 C         1.108420        -0.349982         0.806319
 C         0.140106        -0.139650        -0.331391
 O         0.646955        -1.370324         1.671298
 H         4.873300         1.179259         2.375165
 H         4.102955         2.814777         2.307045
 H         3.569099         1.607694         3.711713
 H         2.872389        -1.194017        -0.335017
 H         2.972272         2.091517        -0.343228
 H         1.098857         1.990632         1.897750
 H         0.635653         0.436445        -1.021630
 H         0.086162        -1.172143        -0.821773
 H        -0.836997         0.371761        -0.068135
 H         1.315624        -1.392592         2.418415
