19
Iteration:  4857
 C         3.654413         1.459565         2.874057
 C         3.097320         0.929859         1.571998
 O         3.441546        -0.453457         1.446707
 C         2.592536        -0.445192         0.150215
 C         2.736131         1.190366         0.118662
 C         1.656247         1.160262         1.174046
 C         1.137571        -0.184426         0.828242
 C         0.124297        -0.323582        -0.334004
 O         0.651156        -0.805794         1.966977
 H         3.944169         0.420603         3.395742
 H         4.565700         2.088111         2.943680
 H         2.826177         1.941027         3.476835
 H         2.884294        -1.304688        -0.441520
 H         3.014456         1.802329        -0.675503
 H         0.914127         1.903907         1.573322
 H         0.378809         0.064511        -1.417690
 H        -0.148365        -1.310211        -0.491953
 H        -0.825071         0.018446        -0.014404
 H         1.398266        -1.162255         2.521485
