19
Iteration:  3817charge 0 multiplicity 1
 C         3.822139         1.790777         2.713420
 C         3.056058         0.933657         1.725135
 O         3.391602        -0.501028         1.468686
 C         2.578915        -0.347140         0.205925
 C         2.676282         1.186848         0.278859
 C         1.651259         1.086126         1.377980
 C         1.109726        -0.197792         0.724464
 C        -0.094144        -0.055010        -0.175286
 O         0.835995        -1.387224         1.650529
 H         3.296515         1.661131         3.684828
 H         4.875045         1.557205         2.697195
 H         3.799019         2.834391         2.303842
 H         2.964642        -1.044580        -0.526253
 H         2.881106         1.818778        -0.520716
 H         1.013081         1.943347         1.739116
 H        -0.112376         0.845185        -0.917334
 H        -0.191933        -0.868494        -0.946703
 H        -1.042555        -0.118918         0.377485
 H         1.691526        -1.458016         2.084578
