19
Iteration:  4271charge 0 multiplicity 1
 C         3.862460         1.742569         2.561195
 C         3.000444         0.980092         1.706915
 O         3.429760        -0.347781         1.481276
 C         2.632984        -0.366325         0.235047
 C         2.536272         1.171337         0.311369
 C         1.550210         1.015578         1.515501
 C         1.131961        -0.250761         0.903275
 C         0.078447        -0.058291        -0.305467
 O         0.753424        -1.424113         1.566791
 H         3.394674         2.182660         3.534473
 H         4.651437         1.160445         2.967569
 H         4.319381         2.658433         2.171400
 H         2.900436        -1.124077        -0.498020
 H         2.836309         1.970775        -0.382244
 H         0.874031         1.767383         1.853448
 H         0.419614         0.976324        -0.923495
 H         0.092243        -0.987785        -0.931881
 H        -0.926888         0.001915         0.096524
 H         1.406669        -1.337552         2.296078
