19
Iteration:  1538charge 0 multiplicity 1
 C         3.774661         1.505700         2.775264
 C         3.137123         0.922523         1.637760
 O         3.420652        -0.420644         1.388985
 C         2.595131        -0.334773         0.137951
 C         2.651487         1.212342         0.182072
 C         1.680522         1.073728         1.323026
 C         1.136355        -0.252956         0.825909
 C        -0.074786        -0.065117        -0.186854
 O         0.763697        -1.146579         1.782895
 H         3.829799         0.778542         3.634346
 H         4.822425         1.608783         2.481523
 H         3.216207         2.468056         3.063146
 H         2.698296        -1.124829        -0.555810
 H         2.869034         1.890992        -0.573161
 H         0.984702         1.828410         1.780748
 H        -0.940508         0.541719         0.223277
 H         0.248242         0.447794        -1.148372
 H        -0.465006        -1.126819        -0.417482
 H         1.402677        -1.234407         2.503232
