19
Iteration:  4015charge 0 multiplicity 1
 C         3.724465         1.765083         2.882746
 C         3.092774         0.909607         1.680439
 O         3.454850        -0.441367         1.287894
 C         2.571496        -0.322069         0.137547
 C         2.664290         1.351557         0.266755
 C         1.587584         1.046295         1.354820
 C         1.145404        -0.318449         0.758703
 C         0.013298        -0.176372        -0.184823
 O         0.762426        -1.311438         1.715474
 H         3.322021         1.778723         3.839697
 H         4.721259         1.349663         2.993300
 H         3.773588         2.812862         2.583854
 H         2.896960        -0.900511        -0.754361
 H         3.175546         2.145044        -0.265368
 H         1.070925         1.707733         1.997378
 H         0.138199         0.553657        -0.901805
 H        -0.301688        -1.095946        -0.688468
 H        -1.031547         0.083116         0.282238
 H         1.583645        -1.724453         2.183999
