19
Iteration:  4087charge 0 multiplicity 1
 C         4.014413         1.795818         2.507303
 C         3.005848         0.916402         1.820717
 O         3.402686        -0.396363         1.496222
 C         2.568792        -0.277179         0.240630
 C         2.504784         1.232822         0.415756
 C         1.519947         1.087075         1.539398
 C         1.102090        -0.244063         0.799247
 C         0.134916        -0.170230        -0.335431
 O         0.700137        -1.417716         1.552922
 H         4.410527         1.136010         3.429703
 H         4.904535         1.975340         1.821874
 H         3.442056         2.670413         2.916436
 H         3.061502        -0.888743        -0.496961
 H         2.841795         2.121720        -0.138938
 H         0.730946         1.669477         1.935298
 H         0.541948         0.711817        -1.070128
 H        -0.021792        -1.127811        -0.905141
 H        -0.880699         0.101364        -0.139630
 H         1.521390        -1.699859         2.101834
