19
Iteration:  1330charge 0 multiplicity 1
 C         3.893289         1.469026         2.747454
 C         3.064509         0.979185         1.641077
 O         3.431652        -0.479226         1.384986
 C         2.547376        -0.309265         0.236939
 C         2.696250         1.234289         0.183928
 C         1.580282         1.208308         1.295364
 C         1.073097        -0.224262         0.819386
 C        -0.036721        -0.105298        -0.209707
 O         0.758615        -1.228624         1.821900
 H         3.831329         0.793262         3.621452
 H         4.914593         1.527035         2.483735
 H         3.574514         2.549177         3.039489
 H         2.735440        -1.059478        -0.487707
 H         2.963701         1.847810        -0.702137
 H         0.978137         2.138426         1.541755
 H        -0.864260         0.675223         0.094093
 H         0.247674         0.148833        -1.294713
 H        -0.577421        -1.132865        -0.194794
 H         1.750256        -1.447414         2.104481
