19
Iteration:  4255
 C         3.938437         1.708830         2.695209
 C         3.001425         1.004967         1.720653
 O         3.387318        -0.430472         1.442967
 C         2.539875        -0.270888         0.270308
 C         2.568007         1.287577         0.280464
 C         1.455409         1.116598         1.378639
 C         1.160641        -0.317155         0.777792
 C         0.126301        -0.130106        -0.310452
 O         0.797604        -1.427648         1.686003
 H         3.440785         1.949683         3.593383
 H         4.722698         0.900493         2.900714
 H         4.378329         2.525780         2.078243
 H         2.892673        -0.837328        -0.609785
 H         2.612286         2.079451        -0.462425
 H         0.909895         1.945283         1.925675
 H         0.543634         0.534739        -0.924670
 H        -0.028438        -1.067159        -0.825192
 H        -0.861138         0.103590         0.167264
 H         1.361550        -1.470908         2.429395
