19
Iteration:  2024charge 0 multiplicity 1
 C         3.945931         1.647163         2.593914
 C         3.083467         0.936064         1.672577
 O         3.374992        -0.461215         1.496457
 C         2.551144        -0.325056         0.198040
 C         2.563072         1.243513         0.360778
 C         1.532900         1.104344         1.463774
 C         1.083084        -0.252429         0.848048
 C         0.033699        -0.067492        -0.260888
 O         0.799199        -1.344781         1.591503
 H         3.968691         1.247839         3.643265
 H         4.938105         1.351593         2.288132
 H         3.940995         2.764143         2.499545
 H         2.755754        -0.995734        -0.661721
 H         2.809758         2.097073        -0.327752
 H         1.026207         1.889270         1.942888
 H         0.220190         0.878985        -0.753014
 H         0.019846        -0.926212        -0.937978
 H        -1.077470         0.157429         0.108954
 H         1.502382        -1.273097         2.363069
