19
Iteration:  1150
 C         3.960501         1.775351         2.532547
 C         3.131493         0.840340         1.694712
 O         3.503982        -0.461112         1.341601
 C         2.578902        -0.388328         0.255803
 C         2.534139         1.135008         0.389313
 C         1.549966         1.023294         1.503061
 C         1.092813        -0.281368         0.913160
 C         0.168711         0.016017        -0.315427
 O         0.524055        -1.271345         1.686129
 H         3.954328         1.537305         3.579416
 H         4.975704         2.001839         2.104989
 H         3.383242         2.697805         2.601979
 H         2.858500        -0.863368        -0.668871
 H         2.852683         1.872234        -0.290858
 H         1.066712         1.926126         2.046444
 H        -0.478515         0.791098         0.021698
 H         0.503983         0.434882        -1.283542
 H        -0.368821        -0.958440        -0.605918
 H         1.016606        -1.439892         2.461130
