19
Iteration:  3261charge 0 multiplicity 1
 C         3.851350         1.576629         2.739159
 C         3.078866         0.907285         1.647003
 O         3.426452        -0.418619         1.320445
 C         2.602075        -0.297509         0.121399
 C         2.689610         1.324942         0.288375
 C         1.573196         1.103710         1.386930
 C         1.115003        -0.277031         0.845269
 C         0.094561        -0.219704        -0.248446
 O         0.636195        -1.193296         1.803716
 H         3.721749         0.909553         3.636751
 H         4.851635         1.904775         2.522757
 H         3.261452         2.391666         3.082794
 H         2.945518        -0.987871        -0.642465
 H         2.648733         2.257303        -0.388086
 H         1.080293         1.939685         1.810614
 H         0.422280         0.425319        -1.153383
 H        -0.188020        -1.279423        -0.448165
 H        -0.780754         0.217316         0.016221
 H         1.393521        -1.668405         2.304251
