19
Iteration:  2675
 C         3.905094         1.515251         2.772746
 C         3.045722         0.913516         1.642839
 O         3.343602        -0.459407         1.401625
 C         2.526717        -0.268824         0.157417
 C         2.684664         1.301837         0.267008
 C         1.549688         1.193142         1.356292
 C         1.123046        -0.200184         0.777018
 C         0.015960        -0.226477        -0.275933
 O         0.807020        -1.203160         1.780522
 H         3.748982         0.791676         3.626079
 H         4.982243         1.658146         2.649018
 H         3.419989         2.476422         3.005915
 H         2.784615        -1.025734        -0.666125
 H         3.115969         1.928382        -0.452183
 H         0.924919         1.894362         1.830461
 H         0.066111         0.455206        -1.010008
 H         0.028691        -1.294378        -0.568019
 H        -0.992527        -0.096378         0.290729
 H         1.713295        -1.183795         2.095707
