19
Iteration:  2908charge 0 multiplicity 1
 C         3.786453         1.630771         2.721313
 C         3.069583         0.892563         1.669771
 O         3.367364        -0.539831         1.370053
 C         2.591838        -0.316177         0.107577
 C         2.632959         1.254766         0.299597
 C         1.581287         1.121197         1.355562
 C         1.117743        -0.213207         0.840937
 C         0.049946        -0.150958        -0.200328
 O         0.809317        -1.200022         1.762703
 H         3.856512         1.078392         3.662710
 H         4.907769         1.778270         2.494896
 H         3.433883         2.657715         3.015102
 H         2.755562        -0.793846        -0.862353
 H         2.837557         2.157946        -0.194278
 H         1.052306         1.949725         1.722919
 H         0.160408         0.633115        -1.097600
 H        -0.315320        -1.133401        -0.487710
 H        -0.771277         0.341715         0.302079
 H         1.712460        -1.728068         1.873446
