19
Iteration:  4154
 C         3.649933         1.551023         2.817655
 C         3.058484         0.993818         1.625639
 O         3.442281        -0.411066         1.387291
 C         2.635727        -0.353400         0.186906
 C         2.652181         1.214929         0.219431
 C         1.555751         1.142291         1.242936
 C         1.191015        -0.218723         0.808749
 C        -0.045348        -0.122995        -0.200835
 O         0.910420        -1.220648         1.760778
 H         3.672779         0.637864         3.560039
 H         4.692267         2.025737         2.839831
 H         2.778822         2.076223         3.250133
 H         2.755195        -1.137996        -0.565436
 H         2.905453         1.916117        -0.545198
 H         0.767885         1.711559         1.699943
 H        -0.085621         0.868713        -0.795229
 H         0.042219        -1.150868        -0.637243
 H        -0.910498        -0.184393         0.451675
 H         1.791012        -1.394772         2.047119
