19
Iteration:  3684charge 0 multiplicity 1
 C         3.808518         1.717996         2.614365
 C         2.991224         0.909234         1.706097
 O         3.416170        -0.460299         1.495092
 C         2.562697        -0.382043         0.241503
 C         2.597454         1.174418         0.267026
 C         1.595479         1.083615         1.367120
 C         1.146106        -0.213162         0.850405
 C         0.029603        -0.060090        -0.249728
 O         0.802655        -1.300802         1.653524
 H         4.003296         1.056050         3.562604
 H         4.765470         1.930613         2.108706
 H         3.274320         2.603865         2.979273
 H         2.811020        -0.945456        -0.658402
 H         3.052914         2.022416        -0.339416
 H         1.158048         1.950958         1.758901
 H         0.324205         0.989791        -0.720671
 H         0.031488        -1.041020        -0.839103
 H        -0.933741         0.153554         0.189094
 H         1.650355        -1.573155         2.108340
