19
Iteration:   442
 C         3.966944         1.666646         2.670550
 C         3.069039         0.864545         1.755629
 O         3.304900        -0.555280         1.405906
 C         2.525415        -0.315712         0.183343
 C         2.683619         1.196684         0.291433
 C         1.616555         1.131567         1.312543
 C         1.104092        -0.245771         0.771487
 C        -0.039082        -0.129456        -0.197895
 O         0.798991        -1.134042         1.733753
 H         3.781491         1.291284         3.644310
 H         5.072486         1.808544         2.509073
 H         3.486418         2.672298         2.718135
 H         2.802437        -0.910110        -0.698085
 H         2.841303         1.946089        -0.493667
 H         1.015165         1.932648         1.830842
 H        -0.917644        -0.323948         0.388339
 H        -0.085999         0.790318        -0.761631
 H        -0.078757        -1.062938        -0.849215
 H         1.715218        -1.403511         2.118983
