19
Iteration:   225
 C         3.849017         1.712133         2.662423
 C         3.123365         0.864400         1.681109
 O         3.404934        -0.626979         1.239063
 C         2.521186        -0.335707         0.190642
 C         2.624572         1.193534         0.326190
 C         1.647106         1.143601         1.415569
 C         1.133692        -0.216475         0.858809
 C         0.075678        -0.111299        -0.225666
 O         0.680732        -1.162773         1.816063
 H         3.441962         1.425014         3.651083
 H         4.879403         1.716662         2.494437
 H         3.671420         2.806003         2.450650
 H         2.693255        -0.904619        -0.769477
 H         2.795324         1.986214        -0.396415
 H         1.025384         1.935653         1.703034
 H        -0.362531        -1.048428        -0.405070
 H        -0.730211         0.468198         0.163620
 H         0.549905         0.318817        -1.127594
 H         1.385117        -1.342024         2.531056
