19
Iteration:  1990
 C         3.733510         1.631162         2.853976
 C         3.105563         0.886906         1.665258
 O         3.368960        -0.556010         1.248404
 C         2.553205        -0.278552         0.033846
 C         2.779175         1.240055         0.312042
 C         1.624438         1.168169         1.296483
 C         1.098189        -0.194369         0.850749
 C        -0.109314        -0.202672        -0.144084
 O         0.858165        -1.188806         1.783641
 H         3.327787         1.283182         3.831178
 H         4.799739         1.403699         2.743538
 H         3.643787         2.794481         2.905788
 H         2.818361        -0.810559        -0.848774
 H         3.090612         2.083352        -0.235069
 H         1.175758         1.994334         1.708799
 H         0.097578         0.739085        -0.775509
 H        -0.135371        -1.021993        -0.859825
 H        -1.112856        -0.213798         0.485353
 H         1.660483        -1.609693         2.192462
