19
Iteration:  2715charge 0 multiplicity 1
 C         3.925904         1.793162         2.526859
 C         3.111505         0.880859         1.714813
 O         3.461168        -0.486687         1.450549
 C         2.565873        -0.338571         0.215649
 C         2.601944         1.156598         0.350377
 C         1.509576         1.009963         1.542150
 C         1.126414        -0.188380         0.809863
 C         0.087690        -0.027099        -0.288288
 O         0.647364        -1.312825         1.626891
 H         4.159501         1.322272         3.497306
 H         4.949888         1.871649         2.166658
 H         3.260422         2.667787         2.775235
 H         2.670699        -1.102922        -0.572655
 H         2.891441         2.005374        -0.252694
 H         0.844165         1.593023         2.091614
 H         0.373915         0.819613        -1.069394
 H        -0.160973        -0.988457        -0.841689
 H        -0.737097         0.434780         0.245471
 H         1.278790        -1.539818         2.349957
