19
Iteration:  4942
 C         3.921509         1.842018         2.514416
 C         3.088423         0.918552         1.760487
 O         3.386465        -0.513410         1.686120
 C         2.577121        -0.438157         0.361837
 C         2.743130         1.114144         0.300531
 C         1.566363         1.131001         1.317555
 C         1.067926        -0.286422         0.798079
 C         0.109096        -0.024563        -0.374661
 O         0.558068        -1.327420         1.595517
 H         3.631013         2.065605         3.533252
 H         4.927726         1.464512         2.480342
 H         3.930437         2.813859         1.983727
 H         2.911208        -1.184633        -0.343113
 H         3.130686         1.803077        -0.393296
 H         1.091010         2.108190         1.576476
 H         0.279903         1.037188        -0.814623
 H         0.031720        -0.894979        -1.014213
 H        -0.793399         0.274513         0.227049
 H         1.269891        -1.391145         2.214818
