19
Iteration:   200
 C         3.832313         1.567982         2.740456
 C         3.128307         0.860964         1.586708
 O         3.442899        -0.444082         1.394493
 C         2.566435        -0.383879         0.130566
 C         2.700980         1.199385         0.225800
 C         1.656469         1.120920         1.328109
 C         1.053348        -0.150549         0.823141
 C        -0.090518        -0.164300        -0.205393
 O         0.738406        -1.104184         1.851158
 H         3.384765         1.178952         3.610920
 H         5.014551         1.368821         2.508862
 H         3.844309         2.671062         2.720045
 H         2.785070        -1.144117        -0.684201
 H         3.017229         1.919004        -0.493522
 H         0.930198         1.847407         1.957888
 H         0.011735        -1.073407        -0.872021
 H        -1.131794        -0.246618         0.274620
 H        -0.005354         0.727157        -0.750455
 H         1.496918        -1.340770         2.331707
