19
Iteration:  3242charge 0 multiplicity 1
 C         3.900457         1.730450         2.694732
 C         3.117321         0.919526         1.683265
 O         3.413486        -0.488921         1.387287
 C         2.536119        -0.294988         0.227135
 C         2.564730         1.218021         0.282676
 C         1.603692         1.046509         1.500213
 C         1.121974        -0.262057         0.786110
 C         0.080788        -0.094156        -0.357068
 O         0.686081        -1.318950         1.729028
 H         4.085556         1.134675         3.662866
 H         4.921903         1.866090         2.246856
 H         3.484780         2.725976         2.969078
 H         2.801249        -0.853167        -0.674568
 H         2.806423         1.997492        -0.480692
 H         0.911873         1.721384         2.058273
 H         0.473093         0.524482        -1.110538
 H        -0.188892        -1.129726        -0.598301
 H        -0.902684         0.493567        -0.126449
 H         1.325337        -0.987982         2.473945
