19
Iteration:  2080charge 0 multiplicity 1
 C         3.981325         1.839877         2.484783
 C         3.106955         0.893619         1.720065
 O         3.520596        -0.434644         1.404483
 C         2.540749        -0.354533         0.311087
 C         2.572632         1.140909         0.377507
 C         1.613338         1.022917         1.693487
 C         1.126545        -0.208549         0.937922
 C         0.117567        -0.034800        -0.390438
 O         0.524622        -1.368646         1.519595
 H         4.106109         1.276228         3.477799
 H         4.885075         2.035993         1.960827
 H         3.411316         2.667828         2.828625
 H         2.728127        -0.958481        -0.657859
 H         2.536559         2.006300        -0.331800
 H         0.922725         1.807037         2.177161
 H         0.407498         0.463216        -1.247266
 H        -0.309584        -1.011533        -0.763138
 H        -0.878411         0.436716         0.033074
 H         1.174830        -1.733808         2.212942
