19
Iteration:  4894
 C         3.769066         1.656674         2.711174
 C         3.062123         0.874235         1.722423
 O         3.330785        -0.512846         1.605004
 C         2.539895        -0.415956         0.235708
 C         2.796286         1.094903         0.248995
 C         1.644706         1.261905         1.117837
 C         1.136876        -0.156458         0.776639
 C        -0.019946        -0.173742        -0.346612
 O         0.756295        -1.119187         1.796685
 H         3.925322         0.881482         3.435214
 H         4.762747         2.021252         2.421971
 H         3.213076         2.402310         3.246656
 H         2.877217        -1.150034        -0.530652
 H         3.286225         1.815159        -0.485359
 H         0.986147         2.092157         1.340220
 H         0.338202         0.117394        -1.231763
 H        -0.114372        -1.276427        -0.380572
 H        -0.894693         0.440969        -0.189049
 H         1.490236        -1.191931         2.445313
