19
Iteration:  2270
 C         3.975559         1.800661         2.582763
 C         3.072113         0.926450         1.723557
 O         3.391114        -0.456337         1.503586
 C         2.558113        -0.398171         0.284457
 C         2.702977         1.172230         0.310941
 C         1.606059         1.026332         1.448193
 C         1.130522        -0.274571         0.759411
 C        -0.015331         0.037750        -0.251619
 O         0.633160        -1.370185         1.611459
 H         4.210803         1.375022         3.520564
 H         4.917967         1.988889         2.088767
 H         3.472456         2.805996         2.724898
 H         2.707693        -1.170304        -0.451793
 H         2.800690         2.190996        -0.218137
 H         0.985437         1.834752         1.738769
 H         0.195318         0.747954        -1.127990
 H        -0.203083        -0.914849        -0.716135
 H        -0.825118         0.444016         0.256291
 H         1.401282        -1.839856         2.141126
