19
Iteration:  2865charge 0 multiplicity 1
 C         3.720155         1.409474         2.954106
 C         3.122478         0.935654         1.626615
 O         3.433574        -0.517208         1.258467
 C         2.625077        -0.204602         0.138047
 C         2.728190         1.293271         0.167656
 C         1.560484         1.222769         1.146304
 C         1.153650        -0.150536         0.775372
 C        -0.087261        -0.259842        -0.134394
 O         0.830183        -1.183261         1.896531
 H         3.553687         0.516704         3.555728
 H         4.802070         1.700120         2.822774
 H         3.226998         2.310837         3.372222
 H         2.826485        -0.900519        -0.661225
 H         2.831420         2.056542        -0.531347
 H         0.987148         2.072904         1.326748
 H        -0.080580         0.484046        -1.042778
 H        -0.284811        -1.305727        -0.333553
 H        -0.929015         0.048851         0.354637
 H         1.398122        -0.991837         2.651522
