19
Iteration:  2836
 C         3.734313         1.447545         2.807784
 C         3.065037         0.905571         1.629886
 O         3.374627        -0.449528         1.312816
 C         2.521477        -0.271039         0.158496
 C         2.718838         1.279551         0.209738
 C         1.601579         1.110958         1.332682
 C         1.120535        -0.118569         0.757955
 C        -0.036414        -0.288092        -0.226712
 O         0.904473        -1.057722         1.866125
 H         3.601727         0.706799         3.651788
 H         4.793296         1.313096         2.724423
 H         3.431156         2.440503         3.233155
 H         2.698500        -1.222252        -0.423061
 H         2.979611         2.245819        -0.272363
 H         1.068767         1.913804         1.771698
 H        -0.049761         0.406742        -1.114195
 H        -0.062016        -1.306417        -0.718866
 H        -1.022050         0.061109         0.237686
 H         1.809453        -1.486307         2.090564
