19
Iteration:   972charge 0 multiplicity 1
 C         4.038672         1.727513         2.496289
 C         3.109866         0.873147         1.711603
 O         3.339340        -0.549752         1.513777
 C         2.524339        -0.341117         0.273163
 C         2.676861         1.245280         0.383767
 C         1.504774         1.099925         1.466706
 C         1.079395        -0.237516         0.794751
 C         0.028712        -0.043927        -0.337055
 O         0.693642        -1.289657         1.683904
 H         4.129333         1.363734         3.509047
 H         4.923716         1.864020         1.991407
 H         3.639330         2.751457         2.528232
 H         2.988024        -0.916660        -0.556262
 H         2.883931         2.040074        -0.365703
 H         0.862846         1.876372         1.961121
 H        -0.772693         0.713060        -0.068962
 H         0.573795         0.104446        -1.268321
 H        -0.467177        -0.954210        -0.511120
 H         1.567179        -1.563871         2.241240
