19
Iteration:  2687
 C         3.915283         1.631098         2.734589
 C         3.109448         0.931783         1.720275
 O         3.371345        -0.511284         1.384611
 C         2.571956        -0.244576         0.155917
 C         2.703968         1.249793         0.318372
 C         1.528652         1.127427         1.311472
 C         1.043465        -0.217915         0.818504
 C        -0.005632        -0.211816        -0.281447
 O         0.765141        -1.238025         1.778221
 H         4.023224         1.001823         3.673420
 H         4.929699         1.723599         2.302419
 H         3.514286         2.567917         3.085136
 H         2.804089        -0.839848        -0.772924
 H         2.854712         2.106113        -0.276539
 H         0.954256         1.979127         1.743865
 H         0.351880         0.520211        -0.928131
 H        -0.114738        -1.069333        -0.921694
 H        -1.032205         0.168732         0.053283
 H         1.537843        -1.624809         2.192525
