19
Iteration:  2408charge 0 multiplicity 1
 C         3.695089         1.533862         2.913036
 C         3.064744         0.881945         1.646604
 O         3.302366        -0.515461         1.285824
 C         2.499917        -0.292162         0.108839
 C         2.793865         1.341524         0.279981
 C         1.584191         1.219490         1.217130
 C         1.145964        -0.133208         0.747734
 C        -0.083945        -0.274695        -0.081290
 O         0.968706        -1.170409         1.784248
 H         3.095522         1.401415         3.862532
 H         4.719185         0.980932         2.952364
 H         3.746539         2.637420         2.847327
 H         2.848099        -1.024647        -0.615719
 H         3.445213         1.953157        -0.443076
 H         0.905628         1.822412         1.715410
 H         0.100219         0.157322        -1.169126
 H        -0.206915        -1.318471        -0.350791
 H        -0.914235         0.288708         0.287599
 H         1.941186        -1.502299         1.889573
