19
Iteration:   258
 C         3.970052         1.717779         2.506080
 C         3.136472         0.941135         1.678085
 O         3.411589        -0.487732         1.457861
 C         2.537944        -0.394324         0.325161
 C         2.605889         1.206122         0.315240
 C         1.601386         1.083418         1.496487
 C         1.118830        -0.257195         0.829547
 C        -0.044749        -0.033018        -0.306327
 O         0.675568        -1.288635         1.689987
 H         4.081785         1.255973         3.540377
 H         5.011614         1.590771         2.240528
 H         3.622222         2.794682         2.601635
 H         2.768675        -1.031404        -0.556317
 H         2.777069         1.926080        -0.520818
 H         1.037566         1.820271         1.900253
 H        -0.843141        -0.692850        -0.218239
 H        -0.346261         0.977384        -0.165729
 H         0.266107        -0.077812        -1.378980
 H         1.531135        -1.577691         2.152965
