19
Iteration:  4352
 C         3.849005         1.693100         2.757185
 C         3.013994         1.015684         1.700121
 O         3.392616        -0.416250         1.437463
 C         2.583420        -0.362571         0.193443
 C         2.589967         1.200114         0.209085
 C         1.505105         1.117626         1.428181
 C         1.109344        -0.314673         0.796028
 C         0.056710        -0.113739        -0.284730
 O         0.843019        -1.333999         1.710498
 H         3.265427         1.793233         3.607192
 H         4.730843         1.002583         2.917863
 H         4.229141         2.634175         2.358248
 H         3.068393        -1.010059        -0.550173
 H         2.706259         2.026642        -0.462335
 H         0.865762         1.963493         1.632567
 H         0.557407         0.635951        -0.840133
 H         0.080231        -1.057109        -0.928262
 H        -0.999664         0.139937         0.149972
 H         1.647169        -1.219892         2.244701
