19
Iteration:   762
 C         3.839719         1.789122         2.537707
 C         3.115963         0.868053         1.701857
 O         3.543270        -0.576920         1.345112
 C         2.548561        -0.288193         0.262839
 C         2.614701         1.156160         0.291836
 C         1.600212         1.058329         1.588849
 C         1.100426        -0.260036         0.863996
 C         0.111717        -0.008036        -0.287130
 O         0.549339        -1.282969         1.677176
 H         3.737453         1.600586         3.624763
 H         4.909189         1.927350         2.210234
 H         3.476531         2.770042         2.388538
 H         2.737885        -1.112252        -0.550895
 H         3.060319         1.942052        -0.349819
 H         1.017918         1.684665         2.145123
 H        -0.638662         0.647782         0.149866
 H         0.646065         0.532005        -1.119968
 H        -0.439117        -0.864560        -0.744293
 H         1.247427        -1.429946         2.456756
