19
Iteration:  1115charge 0 multiplicity 1
 C         3.984638         1.604046         2.730550
 C         3.128759         0.948175         1.635727
 O         3.403505        -0.407540         1.409259
 C         2.572075        -0.333467         0.221181
 C         2.627774         1.157967         0.234742
 C         1.562304         1.152464         1.371074
 C         1.112742        -0.244105         0.818518
 C        -0.017126        -0.117401        -0.253769
 O         0.665940        -1.281771         1.722114
 H         3.704762         1.168262         3.685563
 H         5.027258         1.451390         2.630608
 H         3.776787         2.703460         2.657950
 H         2.888392        -0.987501        -0.526782
 H         2.902205         1.935485        -0.472495
 H         1.102180         2.042854         1.786363
 H        -0.955550         0.297091         0.240873
 H         0.383743         0.456167        -1.041287
 H        -0.334323        -1.104517        -0.566721
 H         1.152189        -1.212371         2.490932
