19
Iteration:  3239
 C         3.930135         1.757420         2.674096
 C         3.099525         0.899890         1.689244
 O         3.432085        -0.491396         1.392447
 C         2.513495        -0.324463         0.238461
 C         2.558093         1.222556         0.300857
 C         1.579689         1.070990         1.523396
 C         1.107805        -0.299493         0.791701
 C         0.068219        -0.084704        -0.355212
 O         0.711993        -1.307203         1.696605
 H         4.019902         1.184412         3.665442
 H         4.904106         1.892794         2.238014
 H         3.512458         2.689910         2.974608
 H         2.830928        -0.909629        -0.614841
 H         2.871616         2.017778        -0.480464
 H         0.969151         1.770585         2.012432
 H         0.523671         0.664746        -1.117199
 H        -0.272357        -1.113055        -0.639044
 H        -0.762736         0.441235        -0.169596
 H         1.227087        -1.041640         2.441915
