19
Iteration:  3727charge 0 multiplicity 1
 C         3.831627         1.526442         2.792155
 C         3.031566         0.915465         1.735424
 O         3.363308        -0.455669         1.336518
 C         2.578197        -0.219112         0.074221
 C         2.706484         1.302770         0.247216
 C         1.593904         1.238941         1.323273
 C         1.076396        -0.251924         0.783263
 C         0.013053        -0.378211        -0.205633
 O         0.779924        -1.148744         1.785941
 H         4.083671         0.725675         3.571585
 H         4.774617         1.918830         2.437330
 H         3.437040         2.236183         3.487627
 H         2.978882        -0.929784        -0.659562
 H         2.956233         2.191896        -0.420023
 H         1.053880         2.061343         1.687316
 H         0.615155         0.034343        -1.202226
 H        -0.265443        -1.519529        -0.261160
 H        -0.914762         0.176878         0.030116
 H         1.424633        -1.096224         2.452045
