19
Iteration:  4514charge 0 multiplicity 1
 C         3.979783         1.847515         2.545759
 C         3.112511         0.954951         1.774579
 O         3.343455        -0.550992         1.599395
 C         2.602592        -0.326030         0.293558
 C         2.614966         1.199717         0.472323
 C         1.538123         1.099054         1.437865
 C         1.122366        -0.282181         0.673426
 C        -0.001352        -0.191014        -0.310344
 O         0.705306        -1.263154         1.500416
 H         4.903342         1.391572         2.962055
 H         4.308160         2.797445         1.951623
 H         3.650291         2.346676         3.501848
 H         2.901927        -1.050506        -0.465855
 H         2.683917         2.034951        -0.299180
 H         0.992140         1.926423         1.802016
 H         0.045051         0.471538        -1.108504
 H        -0.065904        -1.266121        -0.764407
 H        -0.983902        -0.081545         0.239656
 H         1.566888        -1.439289         2.027839
