19
Iteration:  2997
 C         3.973548         1.759579         2.599760
 C         3.145147         0.923436         1.712185
 O         3.506125        -0.476566         1.414490
 C         2.550251        -0.348758         0.292911
 C         2.540136         1.252512         0.370452
 C         1.605057         1.073508         1.501633
 C         1.022814        -0.259646         0.875337
 C         0.022148        -0.033650        -0.337668
 O         0.637582        -1.406348         1.622589
 H         3.701852         1.735505         3.674887
 H         5.060072         1.540063         2.447292
 H         3.561367         2.771785         2.240536
 H         2.855597        -1.041013        -0.539675
 H         2.752229         2.002115        -0.465744
 H         0.940070         1.895805         1.820316
 H         0.238039         1.066916        -0.786030
 H         0.057640        -0.749595        -1.187764
 H        -0.880214         0.040546         0.133735
 H         1.517577        -1.813579         1.986685
