19
Iteration:  3198charge 0 multiplicity 1
 C         4.013321         1.821469         2.494149
 C         3.064343         1.009253         1.759079
 O         3.333308        -0.477427         1.572696
 C         2.591444        -0.302759         0.223735
 C         2.589319         1.196653         0.333392
 C         1.579627         1.045570         1.528743
 C         1.137891        -0.345000         0.792766
 C         0.065288        -0.034836        -0.242887
 O         0.617698        -1.417179         1.528200
 H         4.029458         1.576746         3.640100
 H         5.076010         1.669114         2.193278
 H         3.800649         2.884701         2.338201
 H         3.008095        -0.911855        -0.590151
 H         3.009062         1.985028        -0.433535
 H         1.044766         1.805989         2.060996
 H         0.444894         0.874373        -0.758494
 H        -0.242155        -0.872563        -0.912082
 H        -0.888109         0.357294         0.400799
 H         1.410073        -2.013164         1.869183
