19
Iteration:  4572
 C         3.832712         1.640477         2.765441
 C         3.085911         0.984063         1.657418
 O         3.444154        -0.398475         1.441730
 C         2.571853        -0.330766         0.218788
 C         2.525785         1.109043         0.170579
 C         1.584636         1.057779         1.370126
 C         1.139429        -0.237287         0.837795
 C         0.160715        -0.117512        -0.324995
 O         0.685438        -1.191974         1.777023
 H         4.854711         1.784407         2.611323
 H         3.368950         2.587140         2.984087
 H         3.531605         0.994313         3.629938
 H         2.776816        -1.129155        -0.501311
 H         2.751533         1.822010        -0.551934
 H         0.855750         1.752642         1.900431
 H         0.606668         0.475709        -1.178687
 H         0.177929        -1.145005        -0.646866
 H        -0.900567         0.298558        -0.112640
 H         1.505120        -1.522171         2.112791
