19
Iteration:  4428charge 0 multiplicity 1
 C         3.672049         1.577330         2.862422
 C         3.147510         0.917187         1.636344
 O         3.442046        -0.490129         1.312889
 C         2.702022        -0.253907         0.130084
 C         2.706821         1.322082         0.276793
 C         1.545469         1.215240         1.204765
 C         1.109364        -0.278925         0.820669
 C        -0.010420        -0.347727        -0.209476
 O         0.736111        -1.156652         1.848197
 H         3.885630         0.802312         3.488755
 H         4.579658         2.109725         2.512070
 H         2.930277         2.230545         3.304108
 H         2.844540        -0.862171        -0.767840
 H         3.134452         2.163533        -0.295951
 H         1.059832         2.082656         1.553706
 H         0.305286         0.262691        -1.021880
 H        -0.061043        -1.419945        -0.602029
 H        -1.005975         0.118230         0.164048
 H         1.421319        -1.216932         2.512373
