19
Iteration:  2482charge 0 multiplicity 1
 C         3.923877         1.724389         2.626231
 C         3.066135         0.892767         1.689945
 O         3.465583        -0.379952         1.390475
 C         2.519257        -0.344291         0.228398
 C         2.651865         1.196768         0.333333
 C         1.611188         1.038582         1.568939
 C         1.090246        -0.257480         0.856972
 C         0.132628        -0.105009        -0.299669
 O         0.588826        -1.296629         1.622116
 H         4.112993         1.275320         3.639133
 H         4.906156         2.013543         2.183416
 H         3.279002         2.569280         2.679082
 H         2.735659        -1.004278        -0.636271
 H         2.605576         2.120069        -0.322192
 H         0.967193         1.699676         2.025594
 H         0.187888         0.805676        -0.881832
 H         0.320317        -0.949191        -0.965419
 H        -0.955047        -0.065911         0.049562
 H         1.440225        -1.654337         2.066524
