19
Iteration:  4571charge 0 multiplicity 1
 C         3.838317         1.634444         2.750688
 C         3.079707         0.978648         1.655982
 O         3.445299        -0.398031         1.447672
 C         2.572519        -0.329142         0.222369
 C         2.519755         1.110483         0.172297
 C         1.582434         1.061902         1.367425
 C         1.141758        -0.231132         0.845831
 C         0.174225        -0.116457        -0.324490
 O         0.683598        -1.198317         1.771397
 H         4.875713         1.765306         2.631279
 H         3.381744         2.631900         2.994379
 H         3.516600         1.017892         3.664701
 H         2.757135        -1.122269        -0.506602
 H         2.726749         1.845485        -0.558658
 H         0.820929         1.741168         1.875511
 H         0.582274         0.461195        -1.150762
 H         0.183152        -1.162028        -0.662277
 H        -0.887011         0.325472        -0.094747
 H         1.490815        -1.527168         2.109484
