19
Iteration:  1346
 C         3.991188         1.634005         2.663065
 C         3.100035         0.913549         1.666265
 O         3.282422        -0.473064         1.465650
 C         2.490508        -0.374588         0.220618
 C         2.652480         1.182455         0.244303
 C         1.614481         1.182446         1.346669
 C         1.117848        -0.209893         0.836100
 C        -0.049422        -0.088469        -0.236798
 O         0.788816        -1.283687         1.691598
 H         4.083218         0.977089         3.538067
 H         5.047660         1.889022         2.301554
 H         3.579797         2.547202         3.023456
 H         2.830537        -1.025467        -0.648025
 H         3.102709         1.967326        -0.324758
 H         1.025662         1.992323         1.840397
 H        -0.752380         0.652570         0.104783
 H         0.464028         0.197210        -1.102338
 H        -0.668933        -0.910223        -0.423852
 H         1.550902        -1.322119         2.377103
