19
Iteration:   140charge 0 multiplicity 1
 C         3.885904         1.607689         2.631292
 C         3.107124         0.902286         1.678727
 O         3.313070        -0.601006         1.454785
 C         2.550241        -0.341556         0.238929
 C         2.814304         1.208386         0.218009
 C         1.600602         1.230025         1.268378
 C         1.071798        -0.180299         0.786489
 C        -0.134361        -0.180404        -0.260617
 O         0.797425        -1.143368         1.871627
 H         3.928214         1.104080         3.675759
 H         4.917456         1.595061         2.329551
 H         3.574259         2.711612         2.716193
 H         2.791263        -1.045003        -0.568675
 H         3.137141         1.881387        -0.573127
 H         1.215754         2.072216         1.773026
 H         0.051711        -0.189796        -1.351778
 H        -0.802307        -0.993831         0.014913
 H        -0.723543         0.873306        -0.027990
 H         1.806407        -1.319469         2.146457
