19
Iteration:  4487
 C         3.800323         1.759383         2.637857
 C         3.019496         0.951154         1.704364
 O         3.376491        -0.465514         1.551143
 C         2.552082        -0.278348         0.191183
 C         2.778869         1.166549         0.292501
 C         1.530421         1.132843         1.356285
 C         1.120697        -0.286467         0.803349
 C         0.058028        -0.062206        -0.252150
 O         0.750654        -1.407995         1.672131
 H         4.695931         1.240479         3.102102
 H         4.297902         2.437304         1.977277
 H         3.393569         2.380207         3.440782
 H         2.785204        -1.023275        -0.593246
 H         3.140819         1.812592        -0.471480
 H         0.882653         2.003210         1.715925
 H         0.218454         0.857732        -0.921850
 H         0.040953        -0.897590        -0.896289
 H        -0.958965        -0.139589         0.106874
 H         1.560861        -1.561571         2.259655
