19
Iteration:  1467charge 0 multiplicity 1
 C         3.936721         1.598993         2.708600
 C         3.052714         0.875130         1.698586
 O         3.357322        -0.589045         1.389282
 C         2.545863        -0.297793         0.219045
 C         2.687481         1.253930         0.208367
 C         1.564837         1.111682         1.320398
 C         1.085069        -0.188557         0.796158
 C        -0.036415        -0.160547        -0.255419
 O         0.781810        -1.093368         1.812895
 H         3.604469         1.509689         3.764746
 H         4.976415         1.092218         2.667710
 H         4.001957         2.652740         2.499616
 H         2.847366        -0.928439        -0.706961
 H         3.106939         2.125408        -0.367970
 H         0.956240         1.809035         1.729158
 H        -0.888135        -0.789156         0.214215
 H        -0.344168         0.921263        -0.362948
 H         0.227575        -0.641839        -1.196360
 H         1.660217        -1.409887         2.262119
