19
Iteration:  2888
 C         3.746406         1.465257         2.840517
 C         3.086167         0.942172         1.655621
 O         3.462726        -0.446064         1.317092
 C         2.524087        -0.340764         0.128836
 C         2.723212         1.285657         0.235621
 C         1.622585         1.130931         1.321516
 C         1.123253        -0.225811         0.739390
 C        -0.131746        -0.203523        -0.155357
 O         0.851983        -1.124401         1.774105
 H         3.629033         0.716987         3.628903
 H         4.737037         1.962993         2.714541
 H         3.158262         2.417332         3.089801
 H         3.015219        -1.079026        -0.532933
 H         3.075213         1.953381        -0.544528
 H         1.127176         1.764708         1.940835
 H         0.063855         0.521714        -1.078403
 H        -0.372914        -1.265613        -0.364331
 H        -1.021014         0.183374         0.139919
 H         1.645755        -0.956463         2.432143
