19
Iteration:  3751charge 0 multiplicity 1
 C         3.804439         1.449444         2.812889
 C         3.143770         0.912042         1.627301
 O         3.487778        -0.419772         1.341188
 C         2.528708        -0.265834         0.191977
 C         2.640615         1.359919         0.248716
 C         1.515596         1.173693         1.280734
 C         1.080883        -0.215967         0.756648
 C        -0.008767        -0.358606        -0.250037
 O         0.794939        -1.036276         1.810619
 H         3.667898         0.580926         3.554723
 H         4.883330         1.648577         2.773502
 H         3.424123         2.252897         3.503414
 H         2.875981        -0.972488        -0.561259
 H         3.024704         2.114243        -0.394606
 H         0.847764         1.776768         1.880863
 H         0.172902        -0.138707        -1.426090
 H        -0.095084        -1.533383        -0.229277
 H        -0.979621        -0.141064         0.149169
 H         1.609036        -1.193734         2.380171
