19
Iteration:  4799charge 0 multiplicity 1
 C         3.848054         1.687047         2.689444
 C         3.079797         0.914400         1.727915
 O         3.225511        -0.521453         1.590167
 C         2.641222        -0.401382         0.268869
 C         2.757694         1.131328         0.248123
 C         1.661809         1.184927         1.235631
 C         1.109327        -0.187798         0.774396
 C        -0.008398        -0.241741        -0.328071
 O         0.723629        -1.070061         1.700348
 H         3.890829         1.011836         3.558531
 H         4.900999         1.881458         2.325578
 H         3.344043         2.664445         3.006453
 H         3.149399        -1.096091        -0.422568
 H         3.006298         1.799581        -0.642397
 H         1.194248         2.040593         1.629934
 H         0.086956         0.490536        -1.161287
 H         0.093466        -1.335611        -0.666593
 H        -1.025764         0.024988         0.169821
 H         1.506648        -1.319811         2.250099
