19
Iteration:  3807charge 0 multiplicity 1
 C         3.758297         1.695005         2.671978
 C         3.089864         0.890278         1.658997
 O         3.375066        -0.506460         1.441688
 C         2.583227        -0.335324         0.261461
 C         2.671059         1.182486         0.246133
 C         1.552584         1.140993         1.395834
 C         1.150441        -0.250257         0.798360
 C        -0.056861        -0.079404        -0.233952
 O         0.895141        -1.263748         1.660568
 H         3.264386         1.525394         3.658882
 H         4.803255         1.395256         2.847110
 H         3.595244         2.798760         2.422604
 H         2.889799        -1.022472        -0.526305
 H         2.846236         1.995723        -0.399085
 H         1.006014         2.055713         1.821020
 H        -0.096122         0.948225        -0.699831
 H        -0.074048        -1.000157        -0.824558
 H        -0.899531        -0.110545         0.487958
 H         1.777609        -1.458236         2.073340
