19
Iteration:  4178
 C         3.602807         1.515753         2.934497
 C         3.025319         0.952140         1.670114
 O         3.416071        -0.448232         1.311584
 C         2.597608        -0.236182         0.105080
 C         2.720709         1.280169         0.165981
 C         1.634797         1.160296         1.247221
 C         1.121516        -0.231865         0.783178
 C        -0.045696        -0.292664        -0.240686
 O         0.935649        -1.174805         1.865339
 H         3.401068         0.835718         3.795421
 H         4.757944         1.457180         2.762654
 H         3.211163         2.542277         3.240711
 H         2.887868        -0.956538        -0.709167
 H         2.850239         2.073262        -0.612929
 H         0.922846         1.943077         1.709515
 H         0.107578         0.524328        -0.869150
 H        -0.250342        -1.287823        -0.671639
 H        -0.909844        -0.000339         0.451594
 H         1.931360        -1.194101         2.168833
