19
Iteration:  4292charge 0 multiplicity 1
 C         3.830801         1.951263         2.633903
 C         3.154481         0.943490         1.706601
 O         3.512920        -0.496361         1.457877
 C         2.582350        -0.360301         0.294703
 C         2.599079         1.238347         0.363304
 C         1.571517         1.039821         1.458362
 C         1.102189        -0.347356         0.755909
 C         0.070655        -0.055214        -0.259503
 O         0.605877        -1.446015         1.593139
 H         3.406575         2.553464         3.503846
 H         4.715247         1.534354         3.058915
 H         4.285140         2.745791         2.002900
 H         3.037790        -0.932199        -0.507218
 H         2.633893         1.944718        -0.488929
 H         0.856132         1.656943         1.941203
 H         0.063811         1.032059        -0.704444
 H        -0.018699        -0.777090        -1.069777
 H        -0.863650        -0.101335         0.272511
 H         1.464098        -1.777509         1.824819
