19
Iteration:  1161
 C         3.919689         1.845003         2.500852
 C         3.131393         0.882208         1.766415
 O         3.551877        -0.538193         1.343293
 C         2.553459        -0.373126         0.265710
 C         2.593192         1.161246         0.400561
 C         1.605705         1.006255         1.508340
 C         1.033204        -0.257587         0.882255
 C         0.141206         0.063755        -0.310365
 O         0.485599        -1.305290         1.696232
 H         4.267243         1.402608         3.431558
 H         4.918190         2.014364         1.970267
 H         3.442236         2.824357         2.500717
 H         2.821851        -0.971234        -0.603555
 H         2.821469         1.913272        -0.309588
 H         0.807938         1.738734         2.012943
 H        -0.765326         0.662970        -0.180280
 H         0.954886         0.276285        -1.066003
 H        -0.430426        -0.931625        -0.558355
 H         1.237387        -1.639665         2.097741
