19
Iteration:  3272charge 0 multiplicity 1
 C         3.759881         1.524933         2.819309
 C         3.080274         0.938274         1.671011
 O         3.517360        -0.424946         1.271832
 C         2.567325        -0.303458         0.208511
 C         2.621382         1.292986         0.256107
 C         1.599018         1.177102         1.314122
 C         1.143324        -0.240221         0.806523
 C         0.010532        -0.301210        -0.199786
 O         0.672798        -1.127166         1.798630
 H         3.916729         0.730214         3.598346
 H         4.812324         1.625448         2.587443
 H         3.387687         2.460289         3.120533
 H         2.752968        -0.916527        -0.663998
 H         3.170190         2.147074        -0.318668
 H         0.920250         1.882482         1.726958
 H         0.476156         0.321113        -1.102751
 H        -0.153039        -1.284953        -0.725143
 H        -0.796679         0.138290         0.192469
 H         1.502174        -1.586297         2.033250
