19
Iteration:  4432
 C         3.657012         1.591076         2.833035
 C         3.121715         0.919541         1.624223
 O         3.475294        -0.469472         1.325770
 C         2.659543        -0.234680         0.146369
 C         2.705115         1.256574         0.265993
 C         1.555219         1.184474         1.210804
 C         1.110800        -0.287316         0.840870
 C         0.009416        -0.321900        -0.205368
 O         0.741584        -1.135235         1.827262
 H         3.994813         0.697486         3.485809
 H         4.586394         2.080540         2.627937
 H         2.838981         2.137644         3.352825
 H         2.946367        -0.877711        -0.708183
 H         3.036247         2.137749        -0.333361
 H         1.075955         2.153861         1.567230
 H         0.307358         0.378257        -1.002673
 H        -0.130464        -1.288190        -0.619078
 H        -0.980433         0.055727         0.144218
 H         1.447543        -1.354108         2.528082
