19
Iteration:  2326
 C         4.011669         1.719123         2.613663
 C         3.155943         0.947645         1.634233
 O         3.378957        -0.465484         1.467952
 C         2.477342        -0.369914         0.317045
 C         2.603983         1.214466         0.294772
 C         1.542777         1.097242         1.440308
 C         1.075188        -0.255023         0.843716
 C         0.109277        -0.070807        -0.324440
 O         0.647784        -1.328700         1.665887
 H         4.278029         0.972862         3.367779
 H         4.895266         2.217720         2.288984
 H         3.380084         2.544173         3.043944
 H         2.820514        -1.008107        -0.514583
 H         2.872419         2.006180        -0.368922
 H         0.998124         1.893447         2.089390
 H         0.389821         0.854575        -0.826900
 H         0.031966        -0.904681        -1.027020
 H        -0.960428         0.046373        -0.002928
 H         1.559922        -1.578522         2.065967
