19
Iteration:  1971charge 0 multiplicity 1
 C         3.642435         1.430623         2.889893
 C         3.119815         0.846373         1.636496
 O         3.447073        -0.509072         1.257510
 C         2.620127        -0.249130         0.084734
 C         2.760103         1.331705         0.217168
 C         1.622123         1.141395         1.253982
 C         1.122876        -0.197241         0.728019
 C        -0.154831        -0.199188        -0.098741
 O         0.883092        -1.102753         1.843625
 H         3.149170         1.045283         3.822306
 H         4.681328         1.467289         3.050941
 H         3.382826         2.474319         2.759986
 H         2.745362        -0.938044        -0.824178
 H         3.136253         2.049734        -0.552295
 H         1.051159         1.875997         1.766581
 H        -0.235147         0.501119        -0.834975
 H        -0.280308        -1.180900        -0.508524
 H        -0.930164        -0.103868         0.731384
 H         1.650851        -0.918180         2.507493
