19
Iteration:  1202
 C         4.021410         1.739372         2.547679
 C         3.094226         0.945349         1.682849
 O         3.395650        -0.524549         1.531764
 C         2.549308        -0.368995         0.263691
 C         2.627066         1.189713         0.260381
 C         1.567784         1.074602         1.437018
 C         1.065536        -0.230728         0.834152
 C         0.045764        -0.006596        -0.193170
 O         0.641074        -1.347741         1.597971
 H         4.124726         1.273134         3.528969
 H         4.982085         1.847289         2.067076
 H         3.684599         2.783651         2.879330
 H         2.867606        -0.990746        -0.511017
 H         2.786232         1.929098        -0.480880
 H         0.976518         2.034542         1.805018
 H        -1.018081         0.414006         0.124161
 H         0.469169         0.635985        -0.919204
 H        -0.084446        -0.913267        -0.807517
 H         1.379494        -1.444642         2.336364
