19
Iteration:  2089
 C         3.921960         1.823327         2.590142
 C         3.149607         0.897982         1.717723
 O         3.497720        -0.447388         1.389887
 C         2.513406        -0.374048         0.218889
 C         2.576560         1.187517         0.372084
 C         1.618802         1.008495         1.600484
 C         1.100447        -0.257934         0.884833
 C         0.119232        -0.011142        -0.341201
 O         0.546956        -1.366832         1.574382
 H         4.398246         1.484985         3.571170
 H         4.771443         2.164635         1.994595
 H         3.306081         2.777313         2.646220
 H         2.586539        -1.163785        -0.543877
 H         2.659915         2.019744        -0.413448
 H         1.216879         1.655959         2.320424
 H         0.576425         0.544992        -1.165779
 H        -0.076469        -1.061569        -0.669792
 H        -0.839003         0.622327         0.016213
 H         1.096984        -1.580848         2.386505
