19
Iteration:  1699charge 0 multiplicity 1
 C         3.708760         1.461895         2.861643
 C         3.093228         0.854401         1.644574
 O         3.484768        -0.481879         1.236332
 C         2.563856        -0.232713         0.066397
 C         2.734068         1.344759         0.270874
 C         1.634358         1.126514         1.301869
 C         1.127744        -0.275461         0.799919
 C        -0.091177        -0.174973        -0.149744
 O         0.790034        -1.117445         1.849949
 H         3.665974         0.856101         3.787854
 H         4.748527         1.641655         2.782399
 H         3.158252         2.449642         2.987835
 H         2.841036        -0.798594        -0.814521
 H         2.989219         2.045171        -0.586051
 H         1.010717         1.841712         1.949614
 H         0.256224        -0.107889        -1.127108
 H        -0.719333        -1.185910         0.003977
 H        -0.762804         0.729881        -0.041108
 H         1.587270        -1.396077         2.210890
