19
Iteration:  2550
 C         4.023512         1.713787         2.586655
 C         3.024282         0.995188         1.727884
 O         3.448727        -0.450791         1.508119
 C         2.582613        -0.366403         0.277110
 C         2.498932         1.234051         0.324459
 C         1.500373         1.093350         1.487632
 C         1.172769        -0.300997         0.793372
 C         0.037293        -0.087437        -0.246039
 O         0.675373        -1.329705         1.541915
 H         4.144364         1.181230         3.549890
 H         5.078888         1.711563         2.142637
 H         3.478147         2.643183         2.940301
 H         2.997377        -0.914797        -0.523372
 H         2.745820         1.953253        -0.389755
 H         0.926274         1.926306         2.001278
 H         0.342246         0.801202        -0.992345
 H        -0.145935        -0.937973        -0.910696
 H        -0.739490         0.306823         0.303201
 H         1.518068        -1.829824         1.754594
