19
Iteration:  3494
 C         3.721942         1.591780         2.841701
 C         3.048196         0.951741         1.637621
 O         3.351154        -0.489303         1.382229
 C         2.518854        -0.292373         0.067313
 C         2.702218         1.212124         0.191208
 C         1.572311         1.146826         1.290379
 C         1.189178        -0.263345         0.807809
 C         0.043215        -0.142544        -0.166293
 O         0.881126        -1.201546         1.809780
 H         3.493029         0.968024         3.625029
 H         4.739260         1.841772         2.657675
 H         3.162803         2.467532         3.208358
 H         2.871803        -0.995608        -0.738903
 H         3.123168         2.117140        -0.401622
 H         0.942633         1.921830         1.652123
 H         0.022474         0.737423        -0.677600
 H        -0.011184        -0.950225        -0.863656
 H        -0.976371        -0.255797         0.438702
 H         1.783587        -1.512659         2.074380
