19
Iteration:  4334
 C         3.796613         1.802808         2.664108
 C         3.092975         0.934836         1.670138
 O         3.471472        -0.443546         1.480421
 C         2.607843        -0.363049         0.277324
 C         2.551156         1.223414         0.323467
 C         1.586205         0.992368         1.390399
 C         1.161116        -0.238934         0.802990
 C         0.044970        -0.062615        -0.292881
 O         0.752503        -1.353895         1.615606
 H         3.061343         2.110910         3.479142
 H         4.632268         1.235414         3.016524
 H         4.148714         2.730018         2.107861
 H         2.802739        -1.058461        -0.534296
 H         2.749188         1.875926        -0.545631
 H         1.023529         1.627610         2.013061
 H        -0.102087         0.846782        -0.827236
 H        -0.043750        -0.840283        -0.981278
 H        -0.819172        -0.021133         0.391431
 H         1.294476        -1.483726         2.402695
