19
Iteration:  3043charge 0 multiplicity 1
 C         3.819943         1.587806         2.770430
 C         3.070287         0.862550         1.675932
 O         3.403660        -0.465892         1.344791
 C         2.607061        -0.295458         0.174825
 C         2.705070         1.275463         0.323071
 C         1.562571         1.197031         1.226011
 C         1.085804        -0.263170         0.776632
 C        -0.065245        -0.124859        -0.205108
 O         0.815757        -1.253742         1.808595
 H         3.908730         0.873838         3.669716
 H         4.841306         1.764295         2.449440
 H         3.138182         2.417829         3.063354
 H         2.801105        -0.888843        -0.693412
 H         2.981577         1.995477        -0.351166
 H         1.064812         2.032494         1.851086
 H         0.192660         0.402228        -1.135567
 H        -0.281753        -1.146186        -0.682042
 H        -0.946354         0.284706         0.348434
 H         1.779316        -1.358394         2.209131
