19
Iteration:  4503charge 0 multiplicity 1
 C         3.937838         1.875406         2.549386
 C         3.010813         0.906035         1.810850
 O         3.305649        -0.502507         1.530280
 C         2.626763        -0.398469         0.327497
 C         2.683578         1.249344         0.337142
 C         1.596499         1.116967         1.430180
 C         1.110170        -0.214108         0.750052
 C         0.007956        -0.186675        -0.286565
 O         0.725875        -1.321180         1.531083
 H         4.749389         1.228187         2.911128
 H         4.404758         2.683689         1.875377
 H         3.265691         2.195957         3.367055
 H         2.949830        -1.080482        -0.460575
 H         3.237023         2.128977        -0.093111
 H         0.964521         1.791289         1.931226
 H         0.111716         0.655414        -0.912562
 H        -0.072148        -1.169398        -0.877961
 H        -0.945592        -0.070040         0.305283
 H         1.555179        -1.634951         2.037654
