19
Iteration:  4558
 C         3.858320         1.643341         2.665932
 C         3.027775         0.965322         1.640568
 O         3.436106        -0.417288         1.461277
 C         2.550317        -0.410745         0.305018
 C         2.557727         1.267694         0.250867
 C         1.506926         1.153510         1.375769
 C         1.159134        -0.262728         0.874996
 C         0.268525        -0.142323        -0.315761
 O         0.659204        -1.288064         1.699215
 H         4.909698         1.300068         2.500359
 H         3.799845         2.810938         2.577728
 H         3.592020         1.274739         3.720571
 H         2.832540        -1.054901        -0.531717
 H         2.556048         2.035101        -0.570586
 H         0.841965         1.990634         1.627040
 H         0.639654         0.509689        -1.017836
 H        -0.136549        -1.089374        -0.777972
 H        -0.692171         0.293295         0.110701
 H         1.399759        -1.618061         2.315403
