19
Iteration:  2322charge 0 multiplicity 1
 C         4.000935         1.750944         2.586019
 C         3.144355         0.915753         1.624569
 O         3.381746        -0.464156         1.489993
 C         2.462148        -0.414682         0.330958
 C         2.638239         1.232217         0.315882
 C         1.536980         1.108924         1.502296
 C         1.072953        -0.247759         0.791830
 C         0.093524        -0.081005        -0.322903
 O         0.663821        -1.330150         1.644574
 H         4.337139         1.009935         3.279780
 H         4.946979         2.232655         2.239329
 H         3.442702         2.534558         3.065322
 H         2.735441        -1.037920        -0.492992
 H         2.876989         2.101443        -0.398995
 H         0.880911         1.783429         1.953404
 H         0.361107         0.947739        -0.828632
 H         0.055371        -0.878098        -1.080835
 H        -0.829088         0.164435         0.136772
 H         1.481648        -1.593679         2.119537
