19
Iteration:    16charge 0 multiplicity 1
 C         4.060771         1.738808         2.540409
 C         3.020031         0.866055         1.766156
 O         3.269350        -0.617600         1.524008
 C         2.513637        -0.432106         0.236003
 C         2.736708         1.100553         0.200068
 C         1.647343         1.180368         1.282236
 C         1.002848        -0.157677         0.820220
 C        -0.027614        -0.067863        -0.197713
 O         0.741904        -1.159657         1.782878
 H         4.344847         1.566284         3.563714
 H         4.971184         1.465795         1.829360
 H         3.996460         2.784465         2.300123
 H         2.783661        -1.187463        -0.497089
 H         2.994285         1.853847        -0.562630
 H         1.229520         2.055277         1.770646
 H        -0.919882         0.646660        -0.018061
 H         0.606657         0.219754        -1.191065
 H        -0.546449        -1.023466        -0.332342
 H         1.318865        -0.955282         2.554779
