19
Iteration:  3554
 C         3.778513         1.538754         2.841774
 C         3.022929         0.978936         1.680536
 O         3.373945        -0.470594         1.321963
 C         2.616289        -0.215110         0.128342
 C         2.701833         1.304807         0.214482
 C         1.552214         1.158581         1.269815
 C         1.159549        -0.229138         0.783223
 C        -0.019521        -0.284000        -0.137903
 O         0.816070        -1.204866         1.765234
 H         3.227100         1.520338         3.905542
 H         4.706085         0.981780         3.219533
 H         4.150410         2.523063         2.483527
 H         2.955655        -0.870664        -0.674933
 H         2.901053         2.191901        -0.329363
 H         0.963341         1.921210         1.830648
 H         0.178901         0.166564        -1.232928
 H        -0.228335        -1.378930        -0.304910
 H        -0.811392         0.149690         0.344495
 H         1.589912        -1.689178         2.079512
