19
Iteration:  2094charge 0 multiplicity 1
 C         3.912691         1.830413         2.622261
 C         3.156847         0.892399         1.699769
 O         3.490084        -0.483125         1.373351
 C         2.496120        -0.361201         0.232493
 C         2.577514         1.240658         0.359619
 C         1.620069         0.979629         1.530795
 C         1.078065        -0.286753         0.832875
 C         0.126551         0.003013        -0.283608
 O         0.557457        -1.364240         1.607712
 H         4.315483         1.549015         3.553462
 H         4.790528         2.217317         2.059470
 H         3.322062         2.709564         2.712864
 H         2.718301        -1.156148        -0.533236
 H         2.732465         1.993529        -0.330685
 H         1.159988         1.735924         2.294597
 H         0.708060         0.590719        -1.018622
 H        -0.110009        -0.994361        -0.634096
 H        -0.718582         0.504041        -0.071675
 H         1.116458        -1.445246         2.424469
