19
Iteration:   981charge 0 multiplicity 1
 C         3.985950         1.707481         2.554196
 C         3.025862         0.908518         1.731752
 O         3.406515        -0.518564         1.494539
 C         2.483798        -0.315993         0.209078
 C         2.691875         1.181199         0.325663
 C         1.545433         1.103261         1.415575
 C         1.028625        -0.195131         0.840920
 C         0.078547        -0.088787        -0.343301
 O         0.712333        -1.313760         1.708436
 H         4.207861         1.255736         3.530479
 H         4.960053         1.690509         2.098199
 H         3.671618         2.704436         2.659955
 H         2.752547        -1.070521        -0.660933
 H         2.865759         1.871677        -0.459348
 H         1.108435         1.882234         2.162642
 H        -0.631633         0.705346        -0.025109
 H         0.559241         0.466952        -1.187870
 H        -0.546069        -0.873997        -0.529360
 H         1.477541        -1.195252         2.447402
