19
Iteration:  2419charge 0 multiplicity 1
 C         3.675719         1.480751         2.843015
 C         3.056202         0.929188         1.634921
 O         3.321583        -0.573000         1.417444
 C         2.572922        -0.250634         0.127585
 C         2.731853         1.272888         0.186915
 C         1.570578         1.272390         1.263464
 C         1.115362        -0.143471         0.755488
 C        -0.090781        -0.199883        -0.125724
 O         1.025277        -1.208591         1.736852
 H         3.020144         1.243840         3.725838
 H         4.759408         1.197107         3.167494
 H         3.838194         2.557191         2.624446
 H         2.857577        -0.955955        -0.647331
 H         3.132419         2.146329        -0.436365
 H         0.980225         1.912629         1.841582
 H         0.087263         0.354586        -1.144780
 H        -0.337048        -1.262109        -0.117999
 H        -0.954956         0.179741         0.387904
 H         1.904173        -1.464621         1.982544
