19
Iteration:  4710charge 0 multiplicity 1
 C         3.853028         1.891522         2.655553
 C         3.075204         0.913138         1.762780
 O         3.562498        -0.547649         1.391452
 C         2.574440        -0.408728         0.285045
 C         2.669256         1.148732         0.372169
 C         1.627316         1.092746         1.368787
 C         1.038333        -0.256924         0.871625
 C         0.192670        -0.149416        -0.449875
 O         0.426133        -1.215421         1.746257
 H         3.366084         2.684662         3.188886
 H         4.571913         1.384249         3.413571
 H         4.673060         2.290324         2.002033
 H         2.907597        -0.944534        -0.613245
 H         3.020487         1.817472        -0.343979
 H         0.940199         1.892704         1.764894
 H         0.484025         0.455334        -1.226617
 H        -0.068467        -1.162307        -0.954691
 H        -0.790763         0.341976        -0.112475
 H         1.122287        -1.594137         2.378375
