19
Iteration:  4121charge 0 multiplicity 1
 C         3.858897         1.770430         2.699732
 C         3.099055         0.931765         1.752706
 O         3.386592        -0.458593         1.445862
 C         2.594293        -0.293330         0.155228
 C         2.634347         1.223782         0.338819
 C         1.583829         1.126845         1.373232
 C         1.100870        -0.282481         0.780603
 C        -0.018683        -0.176024        -0.240505
 O         0.772178        -1.357548         1.627573
 H         4.342059         1.143073         3.571779
 H         4.617917         2.565470         2.399063
 H         3.149938         2.406290         3.276249
 H         2.943612        -0.962808        -0.630786
 H         2.937510         2.010977        -0.292605
 H         0.868950         1.796103         1.762150
 H         0.135640         0.761005        -0.960755
 H         0.019266        -1.048807        -0.980051
 H        -0.964433        -0.067649         0.224596
 H         1.592040        -1.428651         2.222049
