19
Iteration:   581charge 0 multiplicity 1
 C         3.870390         1.560064         2.754246
 C         3.029313         0.934608         1.650547
 O         3.349828        -0.471060         1.398420
 C         2.565050        -0.352445         0.178387
 C         2.674806         1.225574         0.260025
 C         1.602571         1.177329         1.237518
 C         1.114150        -0.188957         0.830887
 C        -0.075348        -0.116732        -0.184495
 O         0.868349        -1.235009         1.768703
 H         3.595347         0.937649         3.672735
 H         4.856741         1.259927         2.497674
 H         3.832324         2.615065         2.932209
 H         2.747457        -1.022139        -0.661147
 H         3.086160         1.914140        -0.455986
 H         1.013165         1.962182         1.533706
 H        -0.942455         0.360424         0.265617
 H         0.195418         0.395379        -1.128503
 H        -0.564170        -1.075246        -0.279721
 H         1.733627        -1.186162         2.309204
