19
Iteration:  4381
 C         3.874027         1.540701         2.804634
 C         2.999007         0.955812         1.689469
 O         3.354951        -0.477559         1.430592
 C         2.601685        -0.256244         0.203225
 C         2.628433         1.347915         0.253072
 C         1.470288         1.244235         1.278585
 C         1.081737        -0.182247         0.758363
 C         0.030630        -0.351040        -0.291824
 O         0.899334        -1.226143         1.796184
 H         3.263214         1.280675         3.726630
 H         4.855746         1.043637         2.667231
 H         3.886419         2.606647         2.614123
 H         3.056817        -0.877829        -0.582329
 H         2.980914         2.142551        -0.386780
 H         0.847660         2.001407         1.841026
 H         0.320837         0.080885        -1.368293
 H         0.020129        -1.454438        -0.391116
 H        -0.870144         0.122305        -0.044356
 H         1.752366        -1.533482         2.039202
