19
Iteration:   726charge 0 multiplicity 1
 C         4.074445         1.801335         2.499158
 C         3.085612         0.953571         1.683143
 O         3.388459        -0.488621         1.523748
 C         2.553786        -0.339120         0.285216
 C         2.626238         1.217090         0.315164
 C         1.596809         1.021344         1.545552
 C         1.102118        -0.305089         0.821386
 C         0.083268         0.000322        -0.277567
 O         0.547537        -1.383916         1.603559
 H         3.992615         1.500949         3.516623
 H         5.152355         1.734236         2.156130
 H         3.591684         2.823762         2.382160
 H         2.803417        -1.045030        -0.508216
 H         2.787575         2.002107        -0.409771
 H         0.996969         1.962671         1.855859
 H        -0.812358         0.326897         0.275042
 H         0.412293         0.858758        -0.797125
 H        -0.332107        -0.890663        -0.998393
 H         1.372834        -1.781014         2.118438
