19
Iteration:  4698
 C         3.886885         1.773645         2.665839
 C         3.147331         0.934822         1.675657
 O         3.488504        -0.518994         1.452783
 C         2.606985        -0.358027         0.281843
 C         2.628767         1.175080         0.296269
 C         1.523727         1.052293         1.412620
 C         1.118014        -0.304301         0.794827
 C         0.176296        -0.163539        -0.402929
 O         0.494080        -1.135037         1.763481
 H         3.115886         2.479575         2.940773
 H         3.985329         1.120705         3.568053
 H         4.746179         2.317970         2.307300
 H         2.820307        -0.962943        -0.602186
 H         2.845167         1.844185        -0.499931
 H         1.073457         1.969775         1.879108
 H         0.703714         0.464843        -1.069341
 H         0.036498        -1.240104        -0.834964
 H        -0.849406         0.210483        -0.139525
 H         1.157010        -1.326553         2.392109
