19
Iteration:  4812
 C         3.805129         1.653610         2.794279
 C         3.109145         0.899901         1.630383
 O         3.278128        -0.549385         1.516168
 C         2.564564        -0.395129         0.218895
 C         2.862309         1.146325         0.235498
 C         1.624087         1.154333         1.281485
 C         1.124600        -0.143306         0.669639
 C         0.030221        -0.326345        -0.296103
 O         0.694815        -0.991236         1.798453
 H         4.051419         1.056527         3.770324
 H         4.766795         2.111679         2.461033
 H         3.081704         2.506048         3.109928
 H         2.728439        -1.157383        -0.546110
 H         3.109180         2.019776        -0.384249
 H         1.005003         1.986474         1.525366
 H         0.188960         0.346824        -1.227886
 H        -0.034585        -1.309916        -0.678118
 H        -0.937679        -0.257730         0.184776
 H         1.446025        -0.787644         2.429729
