19
Iteration:  4826charge 0 multiplicity 1
 C         3.714404         1.619443         2.836055
 C         3.087977         0.855651         1.709241
 O         3.409194        -0.561031         1.387044
 C         2.540390        -0.395868         0.161343
 C         2.875089         1.211541         0.221977
 C         1.621005         1.216358         1.137139
 C         1.094785        -0.174972         0.806546
 C         0.045741        -0.367856        -0.350669
 O         0.666228        -0.926032         1.917160
 H         3.971230         0.780209         3.573477
 H         4.603152         2.195127         2.605732
 H         3.023364         2.308481         3.287640
 H         2.767128        -1.159459        -0.591524
 H         3.463685         1.757377        -0.454177
 H         1.065440         2.073702         1.667637
 H         0.106752         0.289129        -1.214987
 H         0.108695        -1.364713        -0.666068
 H        -0.885242        -0.114889         0.034802
 H         1.230544        -0.801476         2.715878
