19
Iteration:  3814
 C         3.809715         1.776650         2.707582
 C         3.056052         0.917549         1.711882
 O         3.388769        -0.507634         1.456457
 C         2.577353        -0.334536         0.231759
 C         2.668341         1.175081         0.269530
 C         1.625842         1.105848         1.392202
 C         1.128952        -0.198461         0.735195
 C        -0.087137        -0.054195        -0.186050
 O         0.851471        -1.358821         1.655853
 H         3.218900         1.532766         3.611708
 H         4.850032         1.528404         2.717666
 H         3.766316         2.755000         2.284978
 H         3.004994        -1.042185        -0.467096
 H         2.855436         1.873828        -0.523678
 H         1.068283         1.934056         1.722594
 H        -0.127708         0.868299        -0.940292
 H        -0.206340        -0.902389        -0.946093
 H        -0.984754        -0.167526         0.393240
 H         1.779843        -1.442658         2.094370
