19
Iteration:  1954
 C         3.597558         1.363666         2.882893
 C         3.091134         0.931583         1.582451
 O         3.474583        -0.441952         1.279894
 C         2.589301        -0.335617         0.103195
 C         2.678165         1.218794         0.197156
 C         1.632962         1.177024         1.271669
 C         1.177532        -0.171233         0.762110
 C        -0.132294        -0.229007        -0.061509
 O         0.923893        -1.009581         1.801411
 H         3.166393         0.575385         3.506179
 H         4.712645         1.056841         3.006328
 H         3.397914         2.381448         3.261846
 H         3.028902        -0.970610        -0.642368
 H         2.836114         2.124343        -0.408741
 H         1.001932         1.971897         1.853229
 H        -0.133189         0.484394        -1.010561
 H        -0.384251        -1.310457        -0.353855
 H        -0.979757         0.249876         0.423323
 H         1.791538        -1.055340         2.283370
