19
Iteration:  2337charge 0 multiplicity 1
 C         3.972252         1.644382         2.700744
 C         3.112943         0.973001         1.673751
 O         3.395231        -0.463081         1.398987
 C         2.576643        -0.287427         0.220491
 C         2.555419         1.196638         0.266765
 C         1.603421         1.121770         1.362866
 C         1.038342        -0.251448         0.913097
 C         0.101030        -0.075981        -0.314846
 O         0.647794        -1.317248         1.739922
 H         4.187442         1.050045         3.598703
 H         4.861321         1.936047         2.210680
 H         3.399455         2.509643         3.141644
 H         2.774410        -1.008705        -0.604277
 H         2.709004         1.809357        -0.569415
 H         1.149914         2.047246         1.942102
 H         0.370132         0.709650        -0.994246
 H         0.358305        -1.003527        -0.854158
 H        -0.995582         0.017415        -0.061751
 H         1.385084        -1.698306         2.183383
