19
Iteration:   678
 C         3.999149         1.604947         2.693926
 C         3.100141         0.957840         1.659171
 O         3.277549        -0.476283         1.452238
 C         2.531004        -0.294400         0.195116
 C         2.675227         1.218995         0.294590
 C         1.601891         1.184969         1.344578
 C         1.077686        -0.254558         0.768345
 C        -0.050441        -0.149627        -0.259073
 O         0.789688        -1.247382         1.769747
 H         3.901890         0.975554         3.657311
 H         4.984641         1.469418         2.288039
 H         3.786607         2.658839         2.806342
 H         2.962823        -0.996375        -0.540406
 H         2.928175         1.946195        -0.478047
 H         1.017897         1.907902         1.854672
 H        -1.057086        -0.351480         0.280434
 H        -0.059726         0.878094        -0.822209
 H        -0.026645        -0.997453        -0.943998
 H         1.679143        -1.392459         2.075822
