19
Iteration:  2641
 C         3.765907         1.354165         2.924277
 C         3.078940         0.963584         1.670723
 O         3.398846        -0.451279         1.324784
 C         2.537012        -0.239604         0.071047
 C         2.762961         1.312469         0.188346
 C         1.552143         1.241776         1.197274
 C         1.060917        -0.219390         0.757276
 C        -0.073838        -0.267281        -0.164144
 O         0.914263        -1.127902         1.879124
 H         3.111887         0.943341         3.736157
 H         4.814709         1.095747         3.074601
 H         3.567905         2.450590         3.149042
 H         2.905002        -0.865778        -0.803887
 H         3.048418         1.990961        -0.655467
 H         1.017767         2.078060         1.526199
 H        -0.070201         0.325524        -1.011351
 H        -0.008800        -1.307720        -0.584500
 H        -1.016369        -0.218586         0.439560
 H         1.830940        -1.228275         2.212434
