19
Iteration:  3901
 C         3.926540         1.727078         2.656603
 C         3.037445         0.860023         1.755668
 O         3.425094        -0.472219         1.366442
 C         2.527279        -0.247751         0.170126
 C         2.532918         1.304787         0.295953
 C         1.529967         1.073532         1.403923
 C         1.114488        -0.257628         0.862840
 C         0.157960        -0.175360        -0.360340
 O         0.690843        -1.331665         1.761311
 H         4.342501         1.236397         3.691838
 H         4.895612         2.172600         2.277856
 H         3.381532         2.643815         3.041819
 H         2.931340        -0.849288        -0.638917
 H         2.636467         2.157768        -0.278728
 H         0.991043         1.841172         1.993057
 H         0.890805         0.494357        -1.043194
 H        -0.012172        -1.223519        -0.736598
 H        -0.764011         0.249792        -0.106040
 H         1.339223        -1.548336         2.422601
