19
Iteration:  2209charge 0 multiplicity 1
 C         3.786021         1.477418         2.858348
 C         3.034241         0.887270         1.696869
 O         3.446656        -0.493425         1.299608
 C         2.604576        -0.244672         0.112244
 C         2.665650         1.249371         0.196106
 C         1.549529         1.104362         1.308725
 C         1.155080        -0.213328         0.787115
 C        -0.072958        -0.259477        -0.251486
 O         0.821415        -1.013344         1.873584
 H         3.281414         1.264423         3.882338
 H         4.765848         0.983095         3.017298
 H         4.039585         2.517647         2.594208
 H         2.795011        -0.836378        -0.820248
 H         2.971561         2.030881        -0.420241
 H         1.028640         1.943179         1.848347
 H         0.201091         0.420678        -1.028560
 H        -0.172632        -1.302836        -0.664459
 H        -1.164154         0.027206         0.148847
 H         1.715842        -1.208302         2.260674
