19
Iteration:  2092
 C         3.912809         1.829925         2.610734
 C         3.155402         0.896906         1.708540
 O         3.493551        -0.466788         1.381355
 C         2.501506        -0.364853         0.224968
 C         2.576632         1.218807         0.364497
 C         1.621038         0.989043         1.557567
 C         1.087536        -0.275553         0.853267
 C         0.124869         0.000173        -0.312090
 O         0.555452        -1.366344         1.597430
 H         4.376575         1.532397         3.565061
 H         4.761547         2.195767         2.042488
 H         3.350085         2.697173         2.662293
 H         2.655445        -1.204173        -0.558299
 H         2.701120         1.992740        -0.362228
 H         1.186733         1.724886         2.353309
 H         0.633568         0.551035        -1.042847
 H        -0.082059        -1.043926        -0.640449
 H        -0.775449         0.570598        -0.034714
 H         1.061745        -1.493847         2.349859
