19
Iteration:  1341
 C         3.990888         1.568082         2.692641
 C         3.091762         0.950031         1.664119
 O         3.325838        -0.473270         1.446732
 C         2.523876        -0.331652         0.233796
 C         2.647176         1.179292         0.206833
 C         1.624727         1.205268         1.330201
 C         1.086322        -0.223234         0.844024
 C        -0.055794        -0.108189        -0.241082
 O         0.791598        -1.271985         1.730589
 H         3.966957         0.937163         3.599767
 H         4.941763         1.764976         2.306565
 H         3.404653         2.530486         2.984986
 H         2.663259        -0.986013        -0.578987
 H         3.165870         1.956961        -0.403672
 H         0.926483         2.026357         1.735571
 H        -0.686954         0.795637         0.180329
 H         0.395933         0.258680        -1.258074
 H        -0.686484        -1.071975        -0.416351
 H         1.535657        -1.430915         2.333080
