19
Iteration:  4256charge 0 multiplicity 1
 C         3.929419         1.711155         2.693168
 C         3.001008         1.001609         1.716822
 O         3.389071        -0.427434         1.442596
 C         2.550677        -0.277344         0.272858
 C         2.565714         1.278831         0.274814
 C         1.459075         1.119595         1.394700
 C         1.150424        -0.310870         0.774288
 C         0.133639        -0.120592        -0.303317
 O         0.797279        -1.433088         1.682485
 H         3.448266         1.972562         3.609768
 H         4.705801         0.908475         2.861739
 H         4.379984         2.509048         2.041264
 H         2.923276        -0.840072        -0.591651
 H         2.613932         2.057376        -0.460507
 H         0.900331         1.920616         1.918148
 H         0.496277         0.548766        -0.947493
 H         0.007033        -1.044016        -0.817106
 H        -0.871877         0.109389         0.152785
 H         1.348237        -1.470895         2.439672
