19
Iteration:  3739charge 0 multiplicity 1
 C         3.814987         1.419025         2.807846
 C         3.006207         0.960981         1.634047
 O         3.414168        -0.424774         1.317576
 C         2.608319        -0.254281         0.195233
 C         2.698159         1.321080         0.279794
 C         1.547634         1.193138         1.317284
 C         1.176829        -0.102022         0.777595
 C         0.026603        -0.418306        -0.219704
 O         0.751873        -1.122509         1.795071
 H         4.021829         0.511164         3.483140
 H         4.753089         1.793584         2.417718
 H         3.186860         2.249385         3.163744
 H         2.689704        -0.830136        -0.723466
 H         3.004727         2.106228        -0.421115
 H         1.018848         1.950089         1.809875
 H         0.070614        -0.163168        -1.435517
 H        -0.159638        -1.569237        -0.117400
 H        -0.850787         0.128470         0.113504
 H         1.480468        -1.107758         2.485749
