19
Iteration:  3600
 C         4.006864         1.774475         2.702899
 C         3.021790         0.935072         1.690695
 O         3.343170        -0.472910         1.403109
 C         2.550692        -0.334109         0.139358
 C         2.538023         1.324558         0.330075
 C         1.550279         1.054965         1.436634
 C         1.105952        -0.282310         0.824292
 C         0.133769        -0.107360        -0.307151
 O         0.733804        -1.386734         1.743274
 H         3.516788         1.904202         3.727816
 H         4.859074         1.198461         3.054471
 H         4.368258         2.715995         2.139339
 H         2.909869        -0.979613        -0.747733
 H         2.647650         2.185844        -0.462311
 H         0.858468         1.730483         1.838366
 H         0.507236         0.666269        -1.039408
 H         0.093472        -1.052930        -0.878954
 H        -0.909896         0.187387        -0.045790
 H         1.437438        -1.456802         2.360507
