19
Iteration:  4006charge 0 multiplicity 1
 C         3.700787         1.717540         2.919424
 C         3.061339         0.957539         1.696450
 O         3.423819        -0.465880         1.277951
 C         2.600745        -0.286351         0.077991
 C         2.703669         1.278795         0.284315
 C         1.613637         1.064179         1.328329
 C         1.142521        -0.297129         0.771824
 C        -0.078913        -0.150114        -0.216827
 O         0.845465        -1.308602         1.756978
 H         3.089845         1.664408         3.751664
 H         4.741410         1.397854         2.988881
 H         3.602948         2.723637         2.491578
 H         2.866744        -1.111247        -0.624392
 H         3.159996         2.041383        -0.282828
 H         0.952994         1.822251         1.812468
 H         0.043659         0.630857        -0.902235
 H        -0.081182        -1.119644        -0.724771
 H        -0.995951         0.101794         0.513545
 H         1.804534        -1.440606         2.158854
