19
Iteration:  4061charge 0 multiplicity 1
 C         4.063911         1.786932         2.597202
 C         3.040442         1.051447         1.771236
 O         3.440947        -0.405349         1.405926
 C         2.503919        -0.272981         0.286459
 C         2.520635         1.289798         0.406270
 C         1.460683         1.027841         1.468306
 C         1.094091        -0.355727         0.834513
 C         0.199407        -0.142382        -0.375673
 O         0.699084        -1.464380         1.594230
 H         3.931678         1.404734         3.565621
 H         5.020636         1.440080         2.253086
 H         3.813716         2.845917         2.627015
 H         2.768839        -1.018349        -0.497640
 H         2.485247         2.097626        -0.319874
 H         0.762634         1.556697         2.230324
 H         0.655855         0.652725        -0.979692
 H        -0.154679        -0.953453        -1.026185
 H        -0.861474         0.412503        -0.121469
 H         1.154274        -1.413068         2.492487
