19
Iteration:   586
 C         3.830390         1.497226         2.794104
 C         3.072449         0.995240         1.617288
 O         3.378385        -0.470124         1.388317
 C         2.522846        -0.366941         0.193115
 C         2.653592         1.252082         0.239304
 C         1.593119         1.137062         1.198335
 C         1.095538        -0.186212         0.811889
 C        -0.053615        -0.125455        -0.151580
 O         0.870060        -1.211689         1.777220
 H         3.630586         0.991591         3.695112
 H         4.939884         1.219130         2.591531
 H         3.786381         2.634547         2.951785
 H         2.835539        -1.069122        -0.604366
 H         3.226968         1.887351        -0.450155
 H         0.901490         2.049744         1.622838
 H        -0.870217         0.492610         0.309339
 H         0.205602         0.337312        -1.107007
 H        -0.535586        -1.146799        -0.219690
 H         1.746262        -1.185978         2.215453
