19
Iteration:  1958
 C         3.587740         1.362942         2.878476
 C         3.115606         0.915086         1.567737
 O         3.460291        -0.447430         1.265463
 C         2.613268        -0.328745         0.110518
 C         2.697838         1.233933         0.223849
 C         1.611671         1.160056         1.291705
 C         1.201799        -0.151999         0.763670
 C        -0.146609        -0.238830        -0.090496
 O         0.928230        -1.009809         1.802630
 H         3.153327         0.686645         3.676283
 H         4.641852         1.097327         2.893724
 H         3.347412         2.454123         3.176947
 H         2.977529        -0.971452        -0.682755
 H         2.859642         2.027893        -0.441183
 H         1.066253         1.873385         1.764265
 H        -0.234619         0.489894        -0.956632
 H        -0.403436        -1.225246        -0.372297
 H        -1.051825         0.244606         0.577582
 H         1.680613        -1.045858         2.403255
