19
Iteration:  4775
 C         3.934246         1.737086         2.613980
 C         3.060218         1.027338         1.703283
 O         3.298744        -0.417054         1.622015
 C         2.520967        -0.443066         0.402437
 C         2.812375         1.076690         0.285901
 C         1.519217         1.162941         1.210577
 C         1.084309        -0.284431         0.782815
 C         0.088224        -0.029725        -0.315246
 O         0.683065        -1.345877         1.657032
 H         3.830973         1.458338         3.616926
 H         4.943774         1.367409         2.231733
 H         3.962891         2.805786         2.432047
 H         2.821495        -1.269048        -0.264357
 H         3.222829         1.896898        -0.287986
 H         0.768839         1.988975         1.272100
 H         0.436237         0.760551        -0.935334
 H        -0.131676        -0.991306        -1.022194
 H        -0.878595         0.495536         0.118971
 H         1.485336        -1.537434         2.264091
