19
Iteration:  3595
 C         4.008911         1.748233         2.742373
 C         3.017912         0.942883         1.660304
 O         3.346363        -0.464532         1.404837
 C         2.563556        -0.308033         0.157735
 C         2.549449         1.272138         0.320487
 C         1.547265         1.079689         1.435897
 C         1.104132        -0.281347         0.812485
 C         0.097177        -0.126223        -0.335991
 O         0.783589        -1.369857         1.747485
 H         3.471688         1.940596         3.689102
 H         4.890928         1.107763         3.039984
 H         4.275100         2.602462         2.195632
 H         2.698265        -0.856969        -0.740262
 H         2.567602         2.001823        -0.379624
 H         0.772707         1.728681         1.950230
 H         0.429194         0.669031        -1.052502
 H        -0.016312        -1.093321        -0.854012
 H        -0.906132         0.296850        -0.189983
 H         1.490398        -1.246257         2.473639
