19
Iteration:   797
 C         3.933973         1.619405         2.819087
 C         3.099205         0.933467         1.651060
 O         3.417212        -0.463091         1.381866
 C         2.555591        -0.331808         0.221095
 C         2.622404         1.195151         0.170225
 C         1.581300         1.153268         1.364277
 C         1.146420        -0.277068         0.813949
 C        -0.030041        -0.138950        -0.264224
 O         0.706598        -1.207752         1.747657
 H         3.915141         1.031276         3.803195
 H         4.965451         1.466960         2.537979
 H         3.629616         2.656675         2.931085
 H         2.767893        -1.106817        -0.603366
 H         2.787369         1.881235        -0.681371
 H         0.894604         1.970194         1.776736
 H        -0.818722         0.584024         0.177996
 H         0.355778         0.491402        -1.145083
 H        -0.416091        -1.064634        -0.557947
 H         1.446167        -1.283782         2.467232
