19
Iteration:  1116charge 0 multiplicity 1
 C         3.982225         1.617703         2.726721
 C         3.122401         0.950367         1.628866
 O         3.400189        -0.404411         1.406136
 C         2.573295        -0.342291         0.222561
 C         2.630270         1.160234         0.242596
 C         1.570793         1.132200         1.370618
 C         1.112973        -0.243205         0.828940
 C        -0.014653        -0.107142        -0.258698
 O         0.663528        -1.280904         1.719321
 H         3.729792         1.147725         3.654254
 H         5.045726         1.432170         2.641340
 H         3.783501         2.694331         2.662917
 H         2.907520        -0.970015        -0.531600
 H         2.874663         1.928672        -0.443626
 H         1.109860         2.046097         1.821867
 H        -0.934365         0.283871         0.204821
 H         0.390295         0.470828        -1.052534
 H        -0.353290        -1.132621        -0.528221
 H         1.111702        -1.216393         2.506990
