19
Iteration:  2263charge 0 multiplicity 1
 C         3.955659         1.789499         2.608043
 C         3.079172         0.913488         1.726694
 O         3.393504        -0.428090         1.464246
 C         2.541030        -0.429420         0.296055
 C         2.674924         1.140326         0.268281
 C         1.636558         1.028718         1.449691
 C         1.097931        -0.214209         0.802181
 C         0.017012         0.028414        -0.265662
 O         0.660018        -1.345807         1.601737
 H         3.951164         1.370541         3.682366
 H         4.943255         1.802830         2.128223
 H         3.516493         2.781248         2.856778
 H         2.867926        -1.102878        -0.541579
 H         2.653712         2.005675        -0.334310
 H         1.030127         1.894070         1.883267
 H         0.337107         0.635586        -1.032329
 H        -0.273736        -0.986411        -0.614787
 H        -0.967714         0.337550         0.281311
 H         1.471206        -1.707390         2.097552
