19
Iteration:  2872charge 0 multiplicity 1
 C         3.722244         1.465452         2.970323
 C         3.137601         0.904345         1.613935
 O         3.446109        -0.442870         1.259650
 C         2.602537        -0.302324         0.130741
 C         2.766937         1.302165         0.191397
 C         1.592477         1.183503         1.168780
 C         1.091858        -0.175846         0.784156
 C        -0.125010        -0.252010        -0.174713
 O         0.851325        -1.178268         1.861219
 H         3.590961         0.512772         3.549405
 H         4.796198         1.677973         2.758264
 H         3.226521         2.287548         3.432551
 H         2.652038        -1.004655        -0.692358
 H         2.970800         2.241845        -0.392296
 H         0.977080         2.180025         1.452178
 H         0.070230         0.361264        -0.990222
 H        -0.429080        -1.276311        -0.437008
 H        -1.042790         0.111772         0.541370
 H         1.391667        -0.918879         2.704529
