19
Iteration:   745charge 0 multiplicity 1
 C        -0.094514        -0.627249         0.108115
 C         1.301829        -0.085548        -0.185961
 C         2.559145        -0.962075        -0.461444
 C         3.457996         0.314873        -0.823905
 C         4.878936         0.157965        -1.034015
 O         2.633492         0.872646        -1.929801
 C         1.623569         1.254499        -0.887755
 C         2.596924         1.384702         0.284689
 O         1.906143         0.656111         1.159247
 H        -0.269866        -1.451669         0.827927
 H        -0.787199         0.133100         0.493537
 H        -0.524702        -0.960896        -0.975009
 H         2.975120        -1.562983         0.290102
 H         2.514464        -1.765779        -1.328546
 H         5.373484         1.198741        -1.269500
 H         5.403863        -0.073859        -0.160132
 H         5.162727        -0.624148        -1.794601
 H         0.834322         1.935563        -1.256628
 H         3.140350         2.302556         0.596968
