19
Iteration:  3994charge 0 multiplicity 1
 C        -0.159683        -0.663575         0.304712
 C         1.293193        -0.134387        -0.082568
 C         2.532367        -0.957912        -0.580541
 C         3.370512         0.261870        -0.855821
 C         4.850342         0.241475        -0.934157
 O         2.764782         0.931662        -1.989889
 C         1.697260         1.207992        -1.040185
 C         2.675374         1.371022         0.189378
 O         1.863203         0.673307         1.170346
 H         0.046841        -1.436893         0.948930
 H        -0.848653         0.060102         0.764369
 H        -0.464325        -0.916685        -0.716681
 H         2.766411        -1.791472         0.124480
 H         2.289673        -1.480329        -1.536773
 H         5.236424         1.206686        -0.901011
 H         5.113827        -0.344607        -0.044452
 H         5.191332        -0.186777        -1.844446
 H         0.776398         1.826814        -1.229081
 H         3.081040         2.302966         0.623387
