19
Iteration:  4800
 C        -0.000558        -0.768170         0.155535
 C         1.304539        -0.034483        -0.109066
 C         2.475290        -0.911693        -0.409698
 C         3.416528         0.325701        -0.823050
 C         4.841092         0.081472        -0.976098
 O         2.702068         0.991837        -1.953703
 C         1.662473         1.299555        -0.953502
 C         2.640267         1.430416         0.112158
 O         1.831496         0.568587         1.143678
 H         0.162988        -0.996594         1.194550
 H        -1.009745        -0.162890         0.148356
 H        -0.287776        -1.695348        -0.436928
 H         2.569143        -1.609616         0.416048
 H         2.171426        -1.456354        -1.346121
 H         5.500387         0.929480        -0.649516
 H         5.250508        -0.813441        -0.564973
 H         5.117800        -0.046429        -2.002585
 H         1.097667         2.312319        -1.091288
 H         3.158927         2.338061         0.424188
