19
Iteration:  3790charge 0 multiplicity 1
 C        -0.138869        -0.636439         0.107856
 C         1.256420        -0.136723        -0.019005
 C         2.531421        -0.930113        -0.516134
 C         3.450839         0.333281        -0.773376
 C         4.880122         0.236483        -1.061712
 O         2.687931         0.887313        -1.945449
 C         1.678786         1.191451        -0.927360
 C         2.729609         1.291870         0.227647
 O         1.800185         0.670535         1.165797
 H        -0.246820        -1.342999         0.908615
 H        -0.653938         0.251421         0.540992
 H        -0.521387        -1.014165        -0.816196
 H         2.878200        -1.569467         0.309033
 H         2.294996        -1.414499        -1.418021
 H         5.441176         1.171867        -1.286971
 H         5.318061        -0.451478        -0.431458
 H         5.165187        -0.094542        -2.068833
 H         0.910996         1.971700        -1.222534
 H         3.285962         2.201977         0.598809
