19
Iteration:  1426charge 0 multiplicity 1
 C        -0.038778        -0.671474         0.206189
 C         1.284207         0.016908        -0.092152
 C         2.525087        -0.882452        -0.441150
 C         3.468451         0.267631        -0.767882
 C         4.933237         0.221993        -0.983960
 O         2.549066         0.798341        -1.949475
 C         1.698696         1.222008        -1.021145
 C         2.658055         1.368175         0.158710
 O         1.812549         0.651090         1.071632
 H         0.014860        -1.310606         1.090594
 H        -0.858794         0.131108         0.407744
 H        -0.274613        -1.315336        -0.651913
 H         2.825803        -1.409320         0.472050
 H         2.415377        -1.594237        -1.252927
 H         5.424835         1.167357        -0.952459
 H         5.290793        -0.558813        -0.160550
 H         5.148340        -0.275874        -1.930337
 H         1.029861         2.041434        -1.182473
 H         3.188266         2.255485         0.585761
