19
Iteration:  4897
 C        -0.083044        -0.548655         0.034004
 C         1.268824        -0.062937        -0.082318
 C         2.563320        -0.933038        -0.461142
 C         3.442695         0.231004        -0.777954
 C         5.014777         0.259711        -1.044235
 O         2.524406         0.885641        -1.960706
 C         1.617910         1.185098        -0.893682
 C         2.683880         1.282145         0.255514
 O         1.833009         0.621932         1.168555
 H        -0.110338        -1.521192         0.451316
 H        -0.761244         0.022846         0.730029
 H        -0.547451        -0.548913        -0.975737
 H         2.917970        -1.546417         0.375223
 H         2.288535        -1.487154        -1.391795
 H         5.406242         1.095171        -1.691651
 H         5.557364         0.368866        -0.107670
 H         5.443949        -0.648996        -1.404355
 H         0.942420         2.016421        -1.345001
 H         3.379315         2.000337         0.763585
