19
Iteration:  4789
 C        -0.081656        -0.801237         0.189848
 C         1.234800        -0.011882        -0.059466
 C         2.449148        -0.857757        -0.440814
 C         3.385101         0.339845        -0.796702
 C         4.891821         0.053726        -1.038046
 O         2.736116         0.986741        -1.915643
 C         1.697833         1.277689        -0.964328
 C         2.688541         1.360098         0.187262
 O         1.885942         0.639832         1.084238
 H        -0.183204        -1.259472         1.152031
 H        -0.967811        -0.070608        -0.013986
 H        -0.160641        -1.727609        -0.486088
 H         2.883705        -1.572382         0.254482
 H         2.305232        -1.358019        -1.435606
 H         5.345555         1.027105        -0.709352
 H         5.285051        -0.720839        -0.409063
 H         5.117755        -0.028742        -2.085153
 H         0.770091         1.846821        -1.370492
 H         2.813198         2.355508         0.563438
