19
Iteration:  3092
 C        -0.072567        -0.646990        -0.007074
 C         1.294093        -0.050907         0.094140
 C         2.496138        -0.895915        -0.345259
 C         3.402189         0.267996        -0.734662
 C         4.885040         0.181062        -1.146186
 O         2.668715         0.844828        -1.935400
 C         1.683388         1.201158        -0.893006
 C         2.688704         1.375723         0.096044
 O         1.836624         0.681909         1.185951
 H        -0.307231        -1.382336         0.713708
 H        -0.874553         0.179222        -0.068397
 H        -0.112603        -1.235646        -0.973571
 H         2.800380        -1.546163         0.448367
 H         2.206606        -1.583461        -1.162494
 H         5.380456         1.108058        -1.607726
 H         5.519925        -0.054621        -0.322446
 H         4.980488        -0.498937        -1.949895
 H         0.889208         1.977145        -1.169692
 H         3.251528         2.259478         0.415386
