19
Iteration:  1552charge 0 multiplicity 1
 C        -0.080222        -0.530133        -0.030617
 C         1.332562        -0.081619        -0.023786
 C         2.668587        -0.937037        -0.396228
 C         3.446574         0.292258        -0.748137
 C         4.827931         0.220867        -1.116566
 O         2.597884         0.736152        -1.912988
 C         1.560908         1.154645        -0.868249
 C         2.670216         1.454523         0.253478
 O         1.860389         0.687211         1.126530
 H        -0.243461        -1.299925         0.769751
 H        -0.711554         0.359248         0.055519
 H        -0.210712        -1.118954        -0.945113
 H         3.049427        -1.667768         0.452969
 H         2.517290        -1.570434        -1.311288
 H         5.149248         1.016747        -1.818334
 H         5.374832         0.255353        -0.251270
 H         5.065050        -0.809171        -1.568172
 H         0.622350         1.767173        -1.170779
 H         3.278164         2.246742         0.627131
