19
Iteration:  4166
 C         0.008114        -0.670709         0.218857
 C         1.382319        -0.104633        -0.121995
 C         2.530537        -0.936074        -0.559967
 C         3.375977         0.327741        -0.824186
 C         4.939328         0.122073        -0.880504
 O         2.601903         0.885119        -2.001502
 C         1.595854         1.223682        -0.937847
 C         2.600025         1.420068         0.181838
 O         1.815212         0.713394         1.104657
 H         0.222398        -1.534225         0.916554
 H        -0.445224         0.147058         0.704941
 H        -0.488457        -1.161522        -0.608287
 H         2.919027        -1.542841         0.274301
 H         2.366877        -1.603805        -1.422454
 H         5.393274         1.061100        -0.612063
 H         5.200347        -0.737345        -0.138259
 H         5.426767        -0.232818        -1.832486
 H         0.885299         1.931420        -1.291448
 H         2.996945         2.351941         0.526724
