19
Iteration:  3214
 C        -0.124106        -0.572581         0.037697
 C         1.310478        -0.114748        -0.004624
 C         2.568226        -0.995551        -0.331575
 C         3.411760         0.230180        -0.700403
 C         4.873714         0.229584        -1.112065
 O         2.603066         0.922787        -1.963487
 C         1.710235         1.289136        -0.957626
 C         2.651594         1.315808         0.164210
 O         1.873627         0.627006         1.110185
 H        -0.285469        -1.526591         0.640292
 H        -0.902866         0.144521         0.549473
 H        -0.491394        -0.829090        -0.963185
 H         2.881521        -1.493109         0.603412
 H         2.567453        -1.862698        -1.073379
 H         5.183728         1.232237        -1.667347
 H         5.478560         0.270559        -0.193272
 H         5.234422        -0.647442        -1.726588
 H         0.914034         2.091903        -1.102457
 H         3.312041         2.075872         0.528039
