19
Iteration:  2457charge 0 multiplicity 1
 C        -0.174266        -0.575931         0.227422
 C         1.286088        -0.030062        -0.123434
 C         2.534751        -0.979358        -0.465947
 C         3.393608         0.218551        -0.838347
 C         4.936224         0.237823        -0.957247
 O         2.659320         0.892241        -1.945303
 C         1.617921         1.254670        -0.911384
 C         2.659674         1.336670         0.142700
 O         1.967294         0.591038         1.052636
 H        -0.350036        -1.667024         0.627616
 H        -0.785406         0.054843         0.917405
 H        -0.764397        -0.521783        -0.722937
 H         2.854818        -1.620101         0.397842
 H         2.374196        -1.583342        -1.310354
 H         5.274599         1.266249        -1.097656
 H         5.255424        -0.229254         0.044799
 H         5.353363        -0.354043        -1.760113
 H         0.892467         1.969216        -1.173649
 H         3.169645         2.237521         0.557246
