19
Iteration:  2772
 C        -0.094371        -0.595038         0.126778
 C         1.328939        -0.028746        -0.045817
 C         2.554019        -0.926168        -0.312728
 C         3.486689         0.225039        -0.752129
 C         4.851366         0.177493        -1.058550
 O         2.618220         0.890217        -2.028898
 C         1.664718         1.195733        -0.964231
 C         2.670130         1.305763         0.127119
 O         1.836126         0.672433         1.110222
 H        -0.208786        -1.043963         1.217108
 H        -0.791574         0.279219        -0.034010
 H        -0.279788        -1.276445        -0.695188
 H         2.773845        -1.564782         0.612402
 H         2.485343        -1.715052        -1.076746
 H         5.134648         1.234110        -0.909812
 H         5.448398        -0.349061        -0.227047
 H         5.006330        -0.267397        -1.980771
 H         0.884414         1.906234        -1.053048
 H         3.083858         2.379902         0.483937
