19
Iteration:  1456charge 0 multiplicity 1
 C        -0.032477        -0.726115         0.317038
 C         1.306854        -0.098320        -0.045015
 C         2.515515        -0.907225        -0.540443
 C         3.381948         0.322012        -0.842619
 C         4.786681         0.115385        -0.865126
 O         2.738440         0.971047        -1.959283
 C         1.607841         1.155562        -1.052294
 C         2.590006         1.377238         0.050713
 O         1.913155         0.727555         1.102244
 H         0.041389        -1.502380         1.104507
 H        -0.649606         0.157232         0.618880
 H        -0.286565        -1.110220        -0.638185
 H         3.005377        -1.373386         0.383749
 H         2.371248        -1.587401        -1.298932
 H         5.427141         0.951569        -0.626646
 H         5.045785        -0.705292        -0.114696
 H         5.142129        -0.279531        -1.857053
 H         0.838240         1.945181        -1.306352
 H         3.106393         2.305735         0.263215
