19
Iteration:   133charge 0 multiplicity 1
 C        -0.009252        -0.685095         0.248643
 C         1.331948        -0.130163        -0.118841
 C         2.457442        -1.007815        -0.593641
 C         3.384172         0.292079        -0.795955
 C         4.856122         0.272108        -0.923447
 O         2.680096         0.948285        -1.910389
 C         1.680380         1.255264        -1.032005
 C         2.651542         1.382179         0.200547
 O         1.838787         0.600829         1.095066
 H         0.056476        -1.550337         0.927174
 H        -0.589391         0.213965         0.703679
 H        -0.366575        -0.943038        -0.694612
 H         2.669294        -1.758875         0.260802
 H         2.245702        -1.539957        -1.452298
 H         5.215716         0.108043        -1.909489
 H         5.437363         1.213190        -0.483005
 H         5.022251        -0.553737        -0.313952
 H         0.960887         2.001654        -1.316317
 H         3.161008         2.314994         0.584655
