19
Iteration:  3696charge 0 multiplicity 1
 C        -0.056958        -0.641406         0.147697
 C         1.313684        -0.002694        -0.056755
 C         2.462583        -0.876758        -0.592515
 C         3.405838         0.322150        -0.778894
 C         4.873595         0.203072        -0.970219
 O         2.708211         0.876745        -1.977549
 C         1.628895         1.251164        -0.970786
 C         2.649575         1.331943         0.237177
 O         1.891485         0.511479         1.189082
 H         0.027511        -1.422226         0.997299
 H        -0.632037         0.183861         0.603031
 H        -0.463267        -1.069245        -0.802057
 H         2.788977        -1.553886         0.255845
 H         2.305194        -1.299724        -1.646582
 H         5.099139         1.154442        -1.451436
 H         5.152797        -0.047223         0.123712
 H         5.099079        -0.544268        -1.749842
 H         0.874951         1.928941        -1.355474
 H         3.173021         2.239652         0.543533
