19
Iteration:  2149charge 0 multiplicity 1
 C        -0.111183        -0.518387         0.323669
 C         1.283659        -0.087168        -0.177859
 C         2.398930        -0.936272        -0.605112
 C         3.448845         0.335443        -0.847950
 C         4.973538         0.299303        -0.829307
 O         2.651384         0.916217        -2.018130
 C         1.612733         1.204818        -0.834786
 C         2.693232         1.262105         0.133510
 O         1.890800         0.470673         1.058673
 H         0.144905        -1.167792         1.162062
 H        -0.704987         0.280095         0.830186
 H        -0.648572        -1.055696        -0.417891
 H         2.568516        -1.762585         0.046878
 H         2.348890        -1.269529        -1.816903
 H         5.476108         1.252425        -0.944817
 H         5.461432        -0.196612         0.004840
 H         5.262920        -0.279658        -1.788088
 H         0.854571         2.038766        -1.125273
 H         3.305870         2.081301         0.536014
