19
Iteration:  1314charge 0 multiplicity 1
 C        -0.058126        -0.774124         0.299172
 C         1.276442        -0.036213        -0.091716
 C         2.417812        -0.909615        -0.531224
 C         3.347899         0.349753        -0.800214
 C         4.779224         0.164614        -0.903418
 O         2.763100         0.894154        -2.011735
 C         1.691379         1.162490        -1.041833
 C         2.721121         1.360079         0.137869
 O         1.884515         0.741247         1.135940
 H         0.097288        -1.746887         0.814731
 H        -0.711616        -0.085030         0.851782
 H        -0.437429        -1.061213        -0.639544
 H         2.855896        -1.522479         0.301525
 H         2.244378        -1.372284        -1.433939
 H         5.359052         1.044468        -1.201374
 H         5.255152        -0.093513         0.091227
 H         5.169129        -0.585359        -1.651886
 H         0.945463         1.972342        -1.290181
 H         3.096409         2.319903         0.431144
