19
Iteration:  2870charge 0 multiplicity 1
 C        -0.036429        -0.561515         0.098480
 C         1.347230        -0.044210        -0.016467
 C         2.524131        -0.911281        -0.428388
 C         3.394277         0.300200        -0.736548
 C         4.910075         0.188692        -1.023889
 O         2.571360         0.770858        -1.942558
 C         1.604635         1.201310        -1.001341
 C         2.648608         1.338015         0.130731
 O         1.905240         0.696554         1.130319
 H        -0.064955        -1.586075         0.718813
 H        -0.728802         0.132325         0.572206
 H        -0.357190        -0.698156        -0.947851
 H         2.785658        -1.708427         0.282880
 H         2.362001        -1.442034        -1.341647
 H         5.527396         1.051541        -1.301192
 H         5.319450         0.181154         0.072588
 H         5.116963        -0.786521        -1.402773
 H         0.771731         1.758833        -1.312625
 H         3.272946         2.319441         0.473082
