19
Iteration:  2142
 C        -0.098041        -0.538352         0.304954
 C         1.212936        -0.035527        -0.095850
 C         2.424545        -0.940645        -0.648152
 C         3.424312         0.303048        -0.818119
 C         5.000237         0.301000        -0.878318
 O         2.674837         0.934543        -2.010056
 C         1.619470         1.184154        -0.920952
 C         2.636992         1.235630         0.150314
 O         1.955430         0.487874         1.085268
 H         0.068770        -1.359502         1.067854
 H        -0.621264         0.308938         0.805916
 H        -0.666387        -1.001342        -0.495868
 H         2.562693        -1.820968        -0.013861
 H         2.123024        -1.165118        -1.604264
 H         5.482457         1.283381        -0.864502
 H         5.412185        -0.033119         0.159627
 H         5.203564        -0.442739        -1.691701
 H         0.965243         2.042924        -1.091810
 H         3.086176         2.146495         0.478986
