19
Iteration:  4747
 C        -0.051537        -0.559780         0.116660
 C         1.324044        -0.077498        -0.073850
 C         2.506719        -0.870254        -0.466792
 C         3.427995         0.240489        -0.777810
 C         4.858351         0.209627        -1.075285
 O         2.611838         0.886190        -1.911414
 C         1.671875         1.154571        -0.896425
 C         2.689462         1.374833         0.274296
 O         1.842598         0.587754         1.049450
 H        -0.147133        -1.383403         0.800362
 H        -0.809315         0.267365         0.223770
 H        -0.291881        -1.103545        -0.852734
 H         2.788212        -1.343183         0.467351
 H         2.436415        -1.624528        -1.266483
 H         5.251662         1.242652        -1.310398
 H         5.351119        -0.110268        -0.143631
 H         5.310046        -0.481232        -1.830484
 H         0.879941         1.910379        -1.111206
 H         3.178246         2.211541         0.694212
