19
Iteration:  3742
 C        -0.092205        -0.740411        -0.018951
 C         1.247572        -0.097248        -0.048503
 C         2.558717        -0.862780        -0.323565
 C         3.466197         0.317996        -0.790264
 C         4.824671         0.083228        -1.136379
 O         2.622404         0.980941        -1.930152
 C         1.683710         1.293188        -0.935660
 C         2.699821         1.329785         0.220517
 O         1.843883         0.671026         1.211901
 H        -0.133894        -1.553484         0.760183
 H        -0.907133        -0.035222         0.156032
 H        -0.119197        -1.234308        -1.074852
 H         3.044250        -1.291018         0.552793
 H         2.494841        -1.612671        -1.167203
 H         5.397096         0.967101        -1.245848
 H         5.367765        -0.734212        -0.485259
 H         4.913161        -0.189862        -2.176317
 H         0.927116         2.065133        -0.996121
 H         3.233081         2.144804         0.658135
