19
Iteration:  3900charge 0 multiplicity 1
 C         0.004957        -0.688153         0.068987
 C         1.278222        -0.004547        -0.109508
 C         2.534141        -0.860949        -0.433909
 C         3.446871         0.286696        -0.817340
 C         4.902885         0.104047        -1.167756
 O         2.643282         0.840275        -1.894067
 C         1.692966         1.322858        -0.914924
 C         2.636904         1.371975         0.325843
 O         1.748160         0.620943         1.180407
 H         0.029325        -1.449025         0.911359
 H        -0.796521         0.121508         0.272280
 H        -0.252449        -1.128188        -0.888902
 H         2.833021        -1.445577         0.442323
 H         2.472737        -1.611309        -1.182300
 H         5.284757         1.163863        -1.504609
 H         5.366600        -0.170224        -0.243360
 H         4.995553        -0.631054        -2.055918
 H         0.945753         1.971887        -1.315964
 H         3.233896         2.251656         0.662033
