19
Iteration:  3169charge 0 multiplicity 1
 C         0.003493        -0.651462         0.273894
 C         1.323516        -0.084066        -0.057874
 C         2.491161        -0.965748        -0.574401
 C         3.344983         0.269368        -0.797610
 C         4.860277         0.141507        -0.789311
 O         2.625467         0.906830        -1.977181
 C         1.638877         1.269682        -1.042958
 C         2.675837         1.389478         0.074301
 O         1.927273         0.649221         1.120056
 H        -0.085512        -1.394821         0.995808
 H        -0.665231         0.222178         0.621675
 H        -0.511407        -1.020122        -0.626769
 H         2.838847        -1.784630        -0.032483
 H         2.146960        -1.327190        -1.578631
 H         5.364889         1.211292        -0.730259
 H         5.307616        -0.504709        -0.081521
 H         5.113887        -0.192801        -1.817581
 H         0.835350         1.989377        -1.437611
 H         3.099220         2.313985         0.457097
