19
Iteration:  1521
 C        -0.079705        -0.654577         0.103175
 C         1.261916        -0.071788         0.025072
 C         2.476768        -0.931015        -0.362296
 C         3.411161         0.264669        -0.737448
 C         4.934181         0.298661        -1.063659
 O         2.670706         0.836942        -2.030327
 C         1.636400         1.200255        -0.937701
 C         2.703888         1.341391         0.170825
 O         1.868765         0.666896         1.097623
 H        -0.464862        -1.508807         0.677116
 H        -0.813208         0.131737         0.423863
 H        -0.256486        -0.922084        -0.912033
 H         2.799076        -1.478591         0.681114
 H         2.254031        -1.705214        -1.062343
 H         5.102574         1.140455        -1.695976
 H         5.560431         0.235171        -0.188687
 H         5.178407        -0.613223        -1.655128
 H         0.869244         2.001423        -1.210026
 H         3.349018         2.121053         0.577807
