19
Iteration:   878
 C        -0.061700        -0.661664         0.007041
 C         1.297943        -0.040010         0.036454
 C         2.549758        -0.901828        -0.473306
 C         3.448391         0.307077        -0.808962
 C         4.872828         0.075531        -1.161050
 O         2.694107         0.816063        -1.898028
 C         1.646985         1.266618        -0.965199
 C         2.620778         1.460413         0.314174
 O         1.803108         0.667463         1.217110
 H        -0.222082        -1.237667         0.985368
 H        -0.871055         0.021779        -0.133866
 H        -0.108062        -1.430467        -0.870728
 H         2.971620        -1.258098         0.480785
 H         2.663788        -1.561203        -1.342509
 H         5.228314         1.101926        -1.193359
 H         5.464201        -0.631562        -0.513898
 H         4.874764        -0.185172        -2.226463
 H         0.844824         1.903054        -1.374954
 H         3.040708         2.304168         0.793553
