19
Iteration:  1629charge 0 multiplicity 1
 C         0.064078        -0.679847         0.324176
 C         1.283108        -0.013774        -0.088843
 C         2.430299        -0.904206        -0.595964
 C         3.403394         0.336278        -0.848817
 C         4.854779         0.113361        -0.841874
 O         2.722052         0.843557        -2.049142
 C         1.642179         1.217382        -1.037528
 C         2.572957         1.448153         0.233035
 O         1.851990         0.642365         1.103838
 H         0.507962        -1.424203         1.040829
 H        -0.663409         0.010705         0.803451
 H        -0.358676        -1.138818        -0.522431
 H         2.742440        -1.531310         0.283443
 H         2.319310        -1.485857        -1.451611
 H         5.345672         1.054162        -0.654575
 H         5.235647        -0.563830        -0.107206
 H         5.146562        -0.194393        -1.905138
 H         0.780430         1.782887        -1.562881
 H         3.091467         2.345788         0.552712
