19
Iteration:  4866charge 0 multiplicity 1
 C        -0.110025        -0.523853         0.068182
 C         1.291456        -0.099269        -0.078870
 C         2.534046        -0.935196        -0.391707
 C         3.368087         0.242222        -0.747633
 C         4.842181         0.290766        -1.060306
 O         2.687375         0.891629        -1.893874
 C         1.641794         1.161928        -0.951590
 C         2.697039         1.372577         0.201355
 O         1.922049         0.540020         1.102601
 H        -0.114240        -1.513141         0.506572
 H        -0.705769         0.252926         0.631081
 H        -0.756588        -0.671408        -0.859746
 H         2.897215        -1.627059         0.349808
 H         2.328631        -1.506864        -1.326160
 H         5.091358         1.356290        -1.170738
 H         5.292453        -0.060644        -0.156015
 H         5.195659        -0.339309        -1.883498
 H         0.890693         1.814697        -1.461569
 H         3.302087         2.108527         0.650128
