19
Iteration:  4064charge 0 multiplicity 1
 C        -0.069311        -0.689404         0.021020
 C         1.310529        -0.074737        -0.000519
 C         2.519365        -0.953237        -0.433514
 C         3.358275         0.343159        -0.767482
 C         4.877236         0.109281        -1.070822
 O         2.676335         0.924686        -1.875446
 C         1.560631         1.226363        -0.873996
 C         2.611664         1.391410         0.150929
 O         1.940693         0.670042         1.136303
 H        -0.173690        -1.330247         0.896763
 H        -0.763070         0.148184        -0.014947
 H         0.000120        -1.047375        -0.991109
 H         2.862304        -1.457471         0.426323
 H         2.448176        -1.574678        -1.294611
 H         5.288275         0.879123        -1.798267
 H         5.464361         0.304818        -0.224082
 H         5.215025        -0.851809        -1.462681
 H         0.840088         1.799275        -1.439952
 H         3.265399         2.218537         0.519560
