19
Iteration:  3630
 C        -0.087666        -0.652007         0.114287
 C         1.328002        -0.078713        -0.115737
 C         2.513534        -0.934471        -0.538326
 C         3.332213         0.311226        -0.727632
 C         4.878202         0.210642        -0.992749
 O         2.611285         0.868422        -1.881457
 C         1.665363         1.315238        -0.931553
 C         2.719791         1.397483         0.153860
 O         1.938332         0.540590         1.123876
 H        -0.396333        -1.495559         0.826326
 H        -0.674775         0.216206         0.473129
 H        -0.418788        -0.984415        -0.863213
 H         2.778052        -1.610779         0.304965
 H         2.267126        -1.257771        -1.560551
 H         5.237000         1.148123        -1.262458
 H         5.400067        -0.069648        -0.052144
 H         5.180382        -0.562998        -1.699526
 H         0.844902         1.885324        -1.280871
 H         3.141987         2.187224         0.780284
