19
Iteration:  2522
 C        -0.013290        -0.702068         0.151227
 C         1.246213        -0.024061        -0.074208
 C         2.459893        -0.932330        -0.479456
 C         3.426988         0.262118        -0.787350
 C         4.870366         0.093279        -0.969021
 O         2.610770         0.990835        -1.965267
 C         1.637982         1.269513        -0.959615
 C         2.693490         1.319241         0.172052
 O         1.920163         0.689150         1.120138
 H        -0.080533        -1.176697         1.147235
 H        -0.828066        -0.000135         0.134788
 H         0.002714        -1.363841        -0.684915
 H         2.775847        -1.652238         0.311929
 H         2.306676        -1.477458        -1.350119
 H         5.509569         0.907208        -1.318599
 H         5.291676        -0.277792         0.043757
 H         4.991437        -0.661362        -1.725014
 H         0.842275         1.952194        -1.084594
 H         3.175832         2.285257         0.491085
