19
Iteration:  3089charge 0 multiplicity 1
 C        -0.088893        -0.635874        -0.025719
 C         1.309962        -0.053800         0.101155
 C         2.473806        -0.886257        -0.328748
 C         3.435279         0.258181        -0.741866
 C         4.870612         0.186363        -1.140111
 O         2.637791         0.841798        -1.947459
 C         1.666392         1.218505        -0.905870
 C         2.712401         1.335511         0.114273
 O         1.835135         0.680348         1.177277
 H        -0.334675        -1.399536         0.749553
 H        -0.739377         0.174156        -0.058620
 H        -0.060925        -1.136901        -1.007523
 H         2.924572        -1.469585         0.507534
 H         2.364209        -1.541574        -1.151174
 H         5.375539         1.106756        -1.628783
 H         5.627401        -0.004999        -0.275051
 H         5.000728        -0.559068        -1.947886
 H         0.880749         1.898391        -1.138830
 H         3.179814         2.341152         0.494476
