19
Iteration:   649charge 0 multiplicity 1
 C        -0.173331        -0.600441         0.179835
 C         1.258759        -0.116321        -0.098771
 C         2.566642        -0.872461        -0.495629
 C         3.461171         0.368766        -0.836719
 C         4.928674         0.212256        -0.943223
 O         2.648651         0.872539        -1.951205
 C         1.660761         1.229488        -1.004539
 C         2.668676         1.363070         0.183942
 O         1.884861         0.528983         1.170427
 H        -0.123562        -1.381158         0.965523
 H        -0.742588         0.082593         0.678353
 H        -0.696131        -1.026377        -0.728481
 H         2.817552        -1.726169         0.044278
 H         2.302973        -1.296451        -1.548612
 H         5.390918         1.208170        -1.019589
 H         5.241076        -0.233969        -0.009312
 H         5.221952        -0.425296        -1.796274
 H         0.820028         1.883882        -1.308493
 H         3.121938         2.311116         0.485728
