19
Iteration:  2984
 C        -0.002051        -0.725735         0.285637
 C         1.270562        -0.009861        -0.172951
 C         2.503156        -0.969335        -0.462966
 C         3.412052         0.342950        -0.814202
 C         4.840763         0.044955        -0.823470
 O         2.615772         0.923204        -2.045795
 C         1.622537         1.319477        -1.061752
 C         2.706785         1.391415         0.149925
 O         1.878083         0.668300         1.132979
 H         0.368357        -1.312553         1.095598
 H        -0.715678         0.099870         0.762777
 H        -0.509715        -1.374497        -0.530827
 H         2.844715        -1.498523         0.453454
 H         2.382183        -1.595612        -1.462719
 H         5.330405         1.066121        -0.873232
 H         5.270047        -0.536263        -0.045171
 H         5.186769        -0.532863        -1.700257
 H         0.804463         2.032061        -1.553648
 H         3.231199         2.302870         0.338801
