19
Iteration:  1328charge 0 multiplicity 1
 C         0.010117        -0.682470         0.163879
 C         1.289339        -0.026438        -0.011270
 C         2.441965        -0.926334        -0.422347
 C         3.405085         0.249623        -0.811093
 C         4.897362         0.163609        -0.968382
 O         2.701585         0.943126        -1.906046
 C         1.606377         1.208090        -1.006464
 C         2.632434         1.368283         0.062884
 O         1.879653         0.687913         1.104768
 H         0.328976        -1.563092         0.731666
 H        -0.748511        -0.158599         0.882488
 H        -0.533980        -0.956054        -0.764324
 H         2.704545        -1.711332         0.392109
 H         2.161718        -1.551626        -1.401977
 H         5.233378         1.048930        -1.435446
 H         5.290101         0.070217         0.165568
 H         5.129931        -0.737888        -1.488089
 H         0.845522         1.764813        -1.487377
 H         3.241524         2.288407         0.228031
