19
Iteration:  2391
 C        -0.119841        -0.726674        -0.048026
 C         1.249469        -0.040098        -0.013258
 C         2.581712        -0.823767        -0.312836
 C         3.448990         0.338944        -0.790820
 C         4.848537         0.078237        -1.232658
 O         2.692905         0.928270        -1.949525
 C         1.657932         1.279443        -0.877590
 C         2.706798         1.311272         0.264176
 O         1.832571         0.639515         1.212734
 H        -0.187857        -1.401890         0.934955
 H        -0.977595         0.068206        -0.067390
 H        -0.312565        -1.288017        -0.961169
 H         2.714789        -1.334674         0.656821
 H         2.368070        -1.577619        -1.080893
 H         5.137906         1.006834        -1.645264
 H         5.497943        -0.349877        -0.397511
 H         4.885285        -0.656183        -2.057688
 H         1.019088         2.148186        -1.005217
 H         3.309897         2.132226         0.639479
