19
Iteration:  1545
 C        -0.115796        -0.540838        -0.069467
 C         1.299944        -0.063253        -0.070917
 C         2.668033        -0.960400        -0.385923
 C         3.385410         0.291010        -0.792502
 C         4.881271         0.223108        -1.157803
 O         2.607611         0.745756        -1.866217
 C         1.619398         1.119925        -0.867317
 C         2.638448         1.446022         0.208311
 O         1.888894         0.715036         1.221349
 H        -0.238533        -1.230813         0.753435
 H        -0.913045         0.193075         0.287461
 H        -0.438692        -1.164330        -0.890010
 H         3.037928        -1.735140         0.401972
 H         2.511808        -1.454727        -1.298231
 H         5.126566         1.022154        -1.797006
 H         5.371453         0.305950        -0.079560
 H         5.290711        -0.674854        -1.560460
 H         0.825639         1.708850        -1.286345
 H         3.303909         2.305016         0.510561
