19
Iteration:  4700charge 0 multiplicity 1
 C        -0.060228        -0.551676         0.043132
 C         1.346801        -0.007531        -0.024340
 C         2.496032        -0.978596        -0.512253
 C         3.421883         0.264076        -0.824414
 C         4.902757         0.286096        -0.981612
 O         2.591871         0.829004        -1.848900
 C         1.588973         1.202473        -0.931600
 C         2.734655         1.301282         0.216728
 O         1.859147         0.615681         1.120634
 H        -0.059073        -1.638938         0.269626
 H        -0.547938         0.112318         0.850572
 H        -0.646036        -0.382268        -0.900120
 H         2.885028        -1.603921         0.326734
 H         2.265499        -1.579229        -1.400809
 H         5.142841         0.948794        -1.850056
 H         5.559778         0.563115        -0.156985
 H         5.269468        -0.672242        -1.292153
 H         0.657187         1.654412        -1.493579
 H         3.427578         2.122244         0.567469
