19
Iteration:  4479
 C         0.071565        -0.717619         0.187553
 C         1.271032         0.044050        -0.114350
 C         2.467695        -0.834419        -0.478933
 C         3.397299         0.333407        -0.792060
 C         4.883395         0.101316        -0.926462
 O         2.610472         0.852904        -2.029579
 C         1.628804         1.324374        -0.961779
 C         2.644460         1.395565         0.168220
 O         1.881487         0.536172         1.137539
 H         0.267206        -1.734163         0.657619
 H        -0.425783        -0.141937         0.871952
 H        -0.545374        -0.901241        -0.651774
 H         2.755761        -1.519389         0.334436
 H         2.109703        -1.330084        -1.409661
 H         5.370273         0.773992        -1.585779
 H         5.444967         0.327151        -0.007365
 H         5.308757        -0.910761        -1.142943
 H         0.864059         1.939093        -1.332823
 H         2.948789         2.348680         0.636198
