19
Iteration:  1955charge 0 multiplicity 1
 C        -0.117335        -0.632824         0.311510
 C         1.266873        -0.093233        -0.092407
 C         2.486893        -0.845960        -0.605577
 C         3.433242         0.353243        -0.808224
 C         4.915893         0.186573        -0.882662
 O         2.582239         0.945385        -1.956904
 C         1.657567         1.258041        -0.949360
 C         2.801767         1.331793         0.076372
 O         1.853147         0.491509         1.071429
 H        -0.003605        -1.545069         1.042976
 H        -0.687722         0.293496         0.795684
 H        -0.549883        -0.979731        -0.616070
 H         2.940476        -1.538802         0.198178
 H         2.364279        -1.411967        -1.582698
 H         5.544921         0.981818        -1.136016
 H         5.231779        -0.011762         0.164627
 H         5.108646        -0.774923        -1.494067
 H         0.746439         1.950057        -1.231850
 H         3.339996         2.190197         0.512585
