19
Iteration:   684
 C        -0.055170        -0.697372         0.017434
 C         1.398156        -0.043968        -0.085384
 C         2.576341        -0.968876        -0.362518
 C         3.373544         0.260897        -0.773141
 C         4.852603         0.105768        -1.129851
 O         2.610715         0.969857        -1.835380
 C         1.675791         1.298945        -0.935952
 C         2.644050         1.397707         0.172675
 O         1.819155         0.634036         1.153304
 H         0.016260        -1.385482         0.899641
 H        -0.830787         0.127451        -0.036042
 H        -0.365854        -1.331537        -0.753522
 H         3.019191        -1.556885         0.528395
 H         2.277469        -1.381732        -1.308011
 H         5.257311         1.073018        -0.991588
 H         5.408576        -0.559926        -0.329249
 H         5.158998        -0.237785        -2.110552
 H         0.822325         1.922914        -1.295849
 H         3.116138         2.269680         0.565908
