19
Iteration:  3086
 C        -0.092926        -0.632607        -0.039897
 C         1.321836        -0.057059         0.088219
 C         2.468635        -0.885305        -0.308625
 C         3.459776         0.256253        -0.756780
 C         4.873545         0.193448        -1.131358
 O         2.604355         0.837118        -1.954122
 C         1.652832         1.226470        -0.923256
 C         2.738945         1.313860         0.153583
 O         1.838342         0.684799         1.172703
 H        -0.365969        -1.383019         0.769777
 H        -0.730780         0.249331        -0.033464
 H        -0.033446        -1.036664        -1.033281
 H         3.018832        -1.383377         0.560618
 H         2.484397        -1.555333        -1.215666
 H         5.256356         1.064506        -1.593244
 H         5.627875         0.021509        -0.304736
 H         5.019764        -0.641205        -1.912895
 H         0.831076         1.876953        -1.139927
 H         3.076411         2.289946         0.520375
