19
Iteration:  2748charge 0 multiplicity 1
 C        -0.138041        -0.547877        -0.045979
 C         1.372576        -0.111242         0.016521
 C         2.553862        -0.939055        -0.354604
 C         3.438902         0.303562        -0.839572
 C         4.869831         0.242146        -1.095022
 O         2.567801         0.724275        -1.893270
 C         1.628664         1.258422        -0.928351
 C         2.698291         1.370889         0.177162
 O         1.895906         0.691071         1.184010
 H        -0.463005        -0.929429         0.971034
 H        -0.788784         0.383894        -0.394088
 H        -0.244818        -1.315796        -0.847446
 H         3.048350        -1.209058         0.538012
 H         2.492382        -1.943629        -0.838660
 H         5.335324         1.186141        -1.132406
 H         5.366170        -0.319188        -0.276424
 H         4.953253        -0.428123        -2.003085
 H         0.711570         1.728783        -1.289693
 H         3.423397         2.112846         0.552925
