19
Iteration:  2465charge 0 multiplicity 1
 C        -0.082929        -0.574429         0.267589
 C         1.272612        -0.096188        -0.127210
 C         2.481030        -0.971371        -0.472778
 C         3.397775         0.205793        -0.849874
 C         4.883398         0.232124        -0.890587
 O         2.678249         0.911950        -1.957544
 C         1.629483         1.323682        -0.947584
 C         2.707638         1.352937         0.103501
 O         1.895447         0.541855         1.062587
 H        -0.050679        -1.543911         0.637276
 H        -0.473701         0.281424         0.898264
 H        -0.812819        -0.515684        -0.486440
 H         2.889062        -1.485249         0.295923
 H         2.478967        -1.600628        -1.447686
 H         5.040750         1.275196        -0.975354
 H         5.403920        -0.207545         0.007361
 H         5.304060        -0.471909        -1.715179
 H         0.677898         1.927953        -1.193680
 H         3.240045         2.239148         0.385319
