19
Iteration:  3052
 C        -0.056883        -0.506438         0.008829
 C         1.335647        -0.064781        -0.022458
 C         2.554384        -0.942169        -0.360854
 C         3.380997         0.282390        -0.823901
 C         4.891914         0.246797        -1.076835
 O         2.611817         0.733928        -1.913707
 C         1.641186         1.242313        -0.907700
 C         2.704029         1.373137         0.167215
 O         1.858829         0.598279         1.151379
 H        -0.329435        -1.453328         0.561627
 H        -0.690962         0.284657         0.545066
 H        -0.514451        -0.622785        -0.971405
 H         3.010677        -1.387061         0.568520
 H         2.548399        -1.675981        -1.280135
 H         5.079527         1.026483        -1.756847
 H         5.345376         0.286775        -0.058670
 H         5.127546        -0.837087        -1.407707
 H         0.818655         1.958072        -1.157260
 H         3.004329         2.358114         0.434192
