19
Iteration:   347charge 0 multiplicity 1
 C        -0.092932        -0.646094         0.055674
 C         1.261996        -0.097251        -0.009348
 C         2.579306        -0.863518        -0.412325
 C         3.462250         0.291375        -0.808126
 C         4.953977         0.241313        -1.090933
 O         2.633488         0.887791        -1.921537
 C         1.647152         1.139092        -0.931121
 C         2.636525         1.359489         0.199350
 O         1.824642         0.658153         1.143237
 H        -0.297648        -1.365584         0.859441
 H        -0.973551         0.029548         0.094600
 H        -0.141773        -1.235826        -0.842209
 H         2.906688        -1.492158         0.463987
 H         2.299899        -1.640055        -1.119656
 H         5.530265         1.126031        -0.843340
 H         5.497377        -0.555009        -0.573407
 H         4.863314        -0.196917        -2.126124
 H         1.052433         2.035118        -1.015896
 H         2.897090         2.304712         0.608619
