19
Iteration:   865
 C        -0.060402        -0.690726         0.029895
 C         1.349490        -0.073532        -0.068234
 C         2.558464        -0.897578        -0.330581
 C         3.391370         0.349304        -0.720056
 C         4.846063         0.133256        -1.183938
 O         2.676445         0.908671        -1.924531
 C         1.727051         1.220453        -0.971519
 C         2.607531         1.408031         0.255131
 O         1.807290         0.658563         1.214033
 H        -0.302890        -1.230835         0.952908
 H        -0.758492         0.100191        -0.017788
 H        -0.245390        -1.404238        -0.879865
 H         2.895146        -1.671596         0.281240
 H         2.178488        -1.435896        -1.287155
 H         5.719418         0.885398        -1.213288
 H         5.282432        -0.587138        -0.532709
 H         4.797532        -0.476259        -2.136614
 H         0.934084         1.857011        -1.392096
 H         3.069392         2.339750         0.565435
