19
Iteration:   165
 C        -0.139967        -0.683751         0.155408
 C         1.245404        -0.065792        -0.061582
 C         2.562523        -0.903069        -0.519789
 C         3.433054         0.399386        -0.777832
 C         4.943638         0.249496        -1.013436
 O         2.624913         0.898598        -1.925621
 C         1.635511         1.178157        -0.989663
 C         2.713294         1.313749         0.193004
 O         1.847187         0.580138         1.146304
 H        -0.266165        -1.448145         0.967770
 H        -0.880229         0.219714         0.288164
 H        -0.305186        -1.012206        -0.842557
 H         2.794458        -1.518297         0.447269
 H         2.472586        -1.594529        -1.298536
 H         5.265357         0.424214        -2.027506
 H         5.615787         0.910544        -0.283478
 H         5.125801        -0.763905        -0.774616
 H         0.904009         1.921683        -1.204858
 H         3.339143         2.177734         0.453807
