19
Iteration:  2422
 C        -0.016481        -0.571814        -0.036536
 C         1.353366        -0.029323         0.016579
 C         2.584876        -0.951610        -0.413760
 C         3.405071         0.247283        -0.785125
 C         4.809244         0.149556        -1.150964
 O         2.615982         0.818434        -1.904636
 C         1.638541         1.222815        -0.855150
 C         2.650918         1.392641         0.247910
 O         1.850670         0.666308         1.163071
 H        -0.092631        -1.572615         0.458020
 H        -0.651838         0.273790         0.393227
 H        -0.174488        -0.732536        -1.087400
 H         2.731976        -1.621740         0.335073
 H         2.204427        -1.483144        -1.328153
 H         5.178337         1.130372        -1.349761
 H         5.496067        -0.122404        -0.309253
 H         5.046945        -0.583468        -2.005118
 H         0.858256         2.022743        -1.033935
 H         3.172732         2.251612         0.614462
