19
Iteration:   927charge 0 multiplicity 1
 C        -0.102799        -0.623206         0.169424
 C         1.315359        -0.017723        -0.035000
 C         2.522612        -0.918084        -0.464939
 C         3.373329         0.221473        -0.863629
 C         4.876159         0.247621        -0.977114
 O         2.692172         0.868013        -1.911348
 C         1.672575         1.234399        -1.013130
 C         2.617735         1.306173         0.206243
 O         1.910627         0.607536         1.104837
 H        -0.199334        -1.448804         0.894687
 H        -0.950683         0.119238         0.503078
 H        -0.478982        -0.952413        -0.787338
 H         3.029182        -1.485398         0.346106
 H         2.323040        -1.463882        -1.471848
 H         5.163053         1.359059        -1.120298
 H         5.237306        -0.175169        -0.061273
 H         5.219102        -0.413562        -1.811647
 H         0.886008         1.975945        -1.182305
 H         3.174133         2.299508         0.422023
