19
Iteration:  2527charge 0 multiplicity 1
 C        -0.015692        -0.679374         0.119728
 C         1.283341        -0.006366        -0.075701
 C         2.499848        -0.914764        -0.432850
 C         3.368755         0.281352        -0.802237
 C         4.827082         0.073369        -1.002217
 O         2.629646         0.970109        -1.990571
 C         1.667936         1.285346        -0.901931
 C         2.714567         1.335433         0.182461
 O         1.894960         0.673524         1.146675
 H        -0.064404        -1.152249         1.164972
 H        -0.988351        -0.098908         0.046497
 H         0.007579        -1.477166        -0.735661
 H         2.815670        -1.645631         0.341060
 H         2.493087        -1.589448        -1.403493
 H         5.405577         0.954919        -1.390911
 H         5.117357        -0.284571        -0.053822
 H         5.136437        -0.717740        -1.756377
 H         0.713915         1.843850        -1.281143
 H         3.162683         2.214943         0.614214
