19
Iteration:  1029
 C        -0.029435        -0.648708         0.019790
 C         1.332677        -0.055016        -0.052887
 C         2.514219        -0.931566        -0.422378
 C         3.397947         0.337132        -0.823748
 C         4.891224         0.123065        -1.106230
 O         2.638648         0.836423        -1.896391
 C         1.634188         1.212576        -0.863552
 C         2.682647         1.353805         0.252658
 O         1.830454         0.749222         1.129922
 H         0.056606        -1.367857         0.874153
 H        -0.854909        -0.049208         0.284634
 H        -0.282556        -1.325405        -0.880702
 H         2.806706        -1.474466         0.530137
 H         2.349803        -1.641327        -1.307972
 H         5.362938         1.146009        -1.303407
 H         5.383747        -0.317791        -0.215560
 H         4.950964        -0.528010        -2.031904
 H         0.981088         2.021153        -1.258064
 H         3.001151         2.311242         0.621167
