19
Iteration:  4987
 C        -0.075807        -0.695645         0.185107
 C         1.302775        -0.074666        -0.057318
 C         2.450664        -0.881066        -0.553241
 C         3.375336         0.293069        -0.779449
 C         4.821565         0.185999        -0.993520
 O         2.726437         0.960978        -1.961877
 C         1.728570         1.189430        -0.960924
 C         2.727933         1.414884         0.253761
 O         1.844054         0.572239         1.109086
 H        -0.260530        -1.118351         1.198724
 H        -0.833071         0.099256         0.061815
 H        -0.470212        -1.420979        -0.568574
 H         2.908485        -1.513138         0.206500
 H         2.325050        -1.496010        -1.446323
 H         5.196815         1.149731        -1.111836
 H         5.306611        -0.386372        -0.218786
 H         4.846862        -0.345051        -1.960289
 H         0.953145         1.947135        -1.169267
 H         3.274404         2.205148         0.609170
