19
Iteration:   219charge 0 multiplicity 1
 C        -0.115154        -0.772908        -0.014799
 C         1.274305        -0.122707         0.028855
 C         2.587176        -0.930564        -0.350533
 C         3.423635         0.318605        -0.791233
 C         4.893992         0.202242        -1.148711
 O         2.670357         0.888237        -1.934064
 C         1.661009         1.261889        -0.887927
 C         2.724009         1.401926         0.221756
 O         1.794982         0.697505         1.139714
 H        -0.393075        -1.520824         0.783888
 H        -0.871483         0.130910         0.149348
 H        -0.420438        -1.240363        -0.943561
 H         2.964743        -1.668818         0.505780
 H         2.259195        -1.411705        -1.223233
 H         5.142232         1.012953        -1.832701
 H         5.595112         0.176836        -0.178747
 H         5.150777        -0.661549        -1.762322
 H         0.910806         2.021383        -0.956063
 H         3.173480         2.324862         0.572092
