19
Iteration:  2696charge 0 multiplicity 1
 C        -0.065869        -0.689378         0.245441
 C         1.255593        -0.069936        -0.108327
 C         2.472006        -0.840586        -0.382430
 C         3.431463         0.247474        -0.786924
 C         4.892801         0.097212        -1.047650
 O         2.658710         0.903775        -1.974140
 C         1.686664         1.264723        -1.025262
 C         2.687966         1.338652         0.230539
 O         1.797187         0.685430         1.049317
 H         0.088249        -1.546244         0.940570
 H        -0.697869         0.076324         0.657429
 H        -0.469979        -0.939784        -0.699389
 H         2.968274        -1.450502         0.467635
 H         2.531955        -1.601561        -1.181417
 H         5.202328         1.065510        -1.514073
 H         5.413164         0.009675        -0.019636
 H         5.222048        -0.743648        -1.584192
 H         1.115934         2.116044        -1.278382
 H         3.339905         2.245901         0.586940
