19
Iteration:  4861
 C        -0.114285        -0.535214         0.095367
 C         1.304195        -0.073417        -0.091531
 C         2.496622        -0.959618        -0.411455
 C         3.413047         0.281403        -0.776999
 C         4.895747         0.266818        -1.018014
 O         2.673258         0.919405        -1.887985
 C         1.604229         1.140427        -0.998259
 C         2.655044         1.318987         0.206010
 O         1.946611         0.570370         1.126403
 H        -0.108506        -1.568609         0.514824
 H        -0.668436         0.265431         0.568125
 H        -0.544652        -0.720044        -0.876607
 H         2.683910        -1.694232         0.426589
 H         2.276257        -1.589429        -1.281656
 H         5.063154         1.360819        -1.173705
 H         5.475088        -0.171759        -0.152246
 H         5.002937        -0.225467        -2.019910
 H         0.896765         1.870323        -1.476647
 H         3.298109         2.195945         0.688644
