19
Iteration:  4657charge 0 multiplicity 1
 C        -0.133933        -0.753455         0.229097
 C         1.316694        -0.122259        -0.039066
 C         2.506772        -0.922062        -0.495347
 C         3.340958         0.352917        -0.782957
 C         4.878017         0.097855        -1.009600
 O         2.754093         1.033991        -1.896627
 C         1.623284         1.259085        -1.021890
 C         2.690742         1.327004         0.125089
 O         1.854030         0.681168         1.100817
 H         0.096881        -1.714919         0.689965
 H        -0.893449        -0.106685         0.822992
 H        -0.484881        -0.912006        -0.811111
 H         3.000053        -1.554227         0.280641
 H         2.405609        -1.444555        -1.457673
 H         5.356360         0.910548        -1.661204
 H         5.315512         0.135628         0.015811
 H         5.104206        -0.929971        -1.325949
 H         0.743423         1.983322        -1.362540
 H         3.299430         2.165028         0.567355
