19
Iteration:  2715charge 0 multiplicity 1
 C        -0.091064        -0.626735         0.052412
 C         1.331963        -0.026369        -0.016061
 C         2.490398        -0.995577        -0.388214
 C         3.412613         0.268557        -0.775373
 C         4.833323         0.202236        -1.110174
 O         2.689315         0.815794        -1.899256
 C         1.700160         1.234752        -0.939149
 C         2.693134         1.371789         0.140895
 O         1.821264         0.731146         1.189154
 H        -0.048310        -1.254603         0.976337
 H        -0.941563         0.166236         0.144595
 H        -0.173662        -1.260455        -0.866124
 H         2.889475        -1.524244         0.464946
 H         2.197582        -1.670765        -1.241829
 H         5.130997         1.045728        -1.654646
 H         5.485057        -0.004669        -0.272693
 H         5.074599        -0.601756        -1.828834
 H         0.852101         1.812575        -1.310437
 H         3.261709         2.235404         0.474921
