19
Iteration:  1873charge 0 multiplicity 1
 C        -0.054514        -0.619968        -0.058509
 C         1.335115        -0.065985        -0.000827
 C         2.596418        -0.917862        -0.371842
 C         3.376871         0.273101        -0.914667
 C         4.872362         0.146522        -1.192889
 O         2.627371         0.815042        -1.917902
 C         1.636983         1.249918        -0.863460
 C         2.687411         1.419445         0.311638
 O         1.785867         0.674799         1.246744
 H        -0.232155        -1.300087         0.775975
 H        -0.757316         0.188369         0.104289
 H        -0.355798        -1.116550        -1.086444
 H         3.192130        -1.332318         0.460669
 H         2.394661        -1.661131        -1.094245
 H         5.388186         1.207450        -1.335056
 H         5.445133        -0.492052        -0.429712
 H         5.129833        -0.344564        -2.118160
 H         0.874975         1.854391        -1.231793
 H         3.238780         2.172846         0.876642
