19
Iteration:  3580
 C        -0.031986        -0.725045        -0.023226
 C         1.311962         0.001272        -0.064756
 C         2.633195        -0.915909        -0.419655
 C         3.365300         0.263842        -0.762405
 C         4.820084         0.045295        -1.200424
 O         2.624357         0.907829        -1.831353
 C         1.731837         1.321687        -0.875052
 C         2.656813         1.409659         0.259238
 O         1.767275         0.656290         1.141298
 H         0.019669        -1.497275         0.737689
 H        -0.806573        -0.021422         0.254497
 H        -0.317527        -1.199096        -1.021254
 H         3.008758        -1.182341         0.532051
 H         2.491300        -1.732869        -1.159454
 H         5.325513         1.118080        -1.134279
 H         5.484247        -0.704866        -0.628159
 H         4.941164        -0.165199        -2.306123
 H         1.005961         2.177090        -0.984499
 H         3.073220         2.210567         0.880693
