19
Iteration:  4996charge 0 multiplicity 1
 C        -0.035926        -0.611540         0.142215
 C         1.315062        -0.081608        -0.051289
 C         2.471897        -0.948203        -0.504883
 C         3.349317         0.325136        -0.760678
 C         4.777675         0.240511        -1.018504
 O         2.732015         0.884022        -1.939305
 C         1.724023         1.281654        -0.941266
 C         2.661975         1.313958         0.191509
 O         1.887056         0.561440         1.094151
 H        -0.143246        -1.020823         1.110292
 H        -0.805928         0.170594         0.168826
 H        -0.238433        -1.443954        -0.583491
 H         2.753748        -1.610297         0.296014
 H         2.218630        -1.399650        -1.488607
 H         5.302772         1.180001        -0.926718
 H         5.228335        -0.412037        -0.282872
 H         5.016320        -0.169709        -2.015072
 H         0.934879         2.002520        -1.045029
 H         3.007900         2.170193         0.691194
