19
Iteration:  2444charge 0 multiplicity 1
 C        -0.188333        -0.557916         0.091943
 C         1.261775        -0.110005         0.036089
 C         2.492376        -0.939583        -0.506735
 C         3.444993         0.369007        -0.822405
 C         4.914646         0.235128        -1.013717
 O         2.592444         0.839378        -1.953133
 C         1.696960         1.178240        -0.985906
 C         2.734145         1.316902         0.177205
 O         1.915675         0.621620         1.195092
 H        -0.044987        -1.571035         0.468918
 H        -0.712321         0.139910         0.815196
 H        -0.655669        -0.591144        -0.865668
 H         2.795774        -1.434360         0.347294
 H         2.349970        -1.631091        -1.373378
 H         5.390250         1.182655        -1.130388
 H         5.430228        -0.184762        -0.090987
 H         5.149996        -0.501789        -1.855119
 H         0.955965         1.949966        -1.311096
 H         3.274261         2.197166         0.497778
