19
Iteration:  4825charge 0 multiplicity 1
 C        -0.071319        -0.696177         0.180927
 C         1.324569        -0.033061        -0.070304
 C         2.595748        -0.874317        -0.526025
 C         3.429907         0.318552        -0.869654
 C         4.831964         0.115668        -0.951067
 O         2.603510         0.905570        -1.900568
 C         1.669734         1.239714        -0.971534
 C         2.707674         1.326425         0.252133
 O         1.812520         0.675088         1.075654
 H        -0.124889        -1.246697         1.149800
 H        -0.907791        -0.006736         0.261570
 H        -0.394410        -1.287531        -0.710566
 H         2.866732        -1.620374         0.210007
 H         2.336002        -1.303802        -1.506455
 H         5.292516         1.034187        -0.651384
 H         5.404777        -0.700771        -0.455064
 H         5.265145        -0.001813        -2.013914
 H         0.887551         1.840317        -1.291578
 H         3.200065         2.080975         0.761313
