19
Iteration:  4969
 C        -0.081354        -0.699938         0.163412
 C         1.238200        -0.068325        -0.097617
 C         2.556923        -0.923200        -0.553553
 C         3.414782         0.320841        -0.813161
 C         5.006932         0.061622        -1.048767
 O         2.669292         1.017606        -1.879376
 C         1.629238         1.331704        -0.961045
 C         2.619395         1.266788         0.174465
 O         1.830810         0.671900         1.158303
 H        -0.094914        -1.216663         1.212603
 H        -1.022091        -0.157694         0.354860
 H        -0.359387        -1.509292        -0.515878
 H         2.813940        -1.625039         0.279740
 H         2.359550        -1.404149        -1.510527
 H         5.588297         0.982228        -1.384412
 H         5.382439        -0.157477        -0.004495
 H         5.225995        -0.804888        -1.716658
 H         0.739194         2.027425        -1.131770
 H         3.099355         2.204270         0.675684
