19
Iteration:  1158charge 0 multiplicity 1
 C        -0.055743        -0.685471         0.200812
 C         1.350993        -0.095410        -0.057940
 C         2.534710        -0.911947        -0.542628
 C         3.406285         0.366399        -0.843376
 C         4.866253         0.115872        -0.898526
 O         2.607984         0.823881        -1.979872
 C         1.639994         1.237787        -0.949169
 C         2.686593         1.458667         0.153441
 O         1.828177         0.668225         1.133867
 H         0.042114        -1.614000         0.743314
 H        -0.586125         0.027365         0.796085
 H        -0.652233        -0.731187        -0.758909
 H         3.048961        -1.602349         0.094257
 H         2.321470        -1.406720        -1.510316
 H         5.360857         0.967414        -1.566659
 H         5.330343         0.159474         0.101103
 H         5.133828        -0.903372        -1.360624
 H         0.923632         1.993838        -1.352348
 H         3.288608         2.241284         0.686458
