19
Iteration:  1166
 C        -0.063488        -0.652342         0.171629
 C         1.283736        -0.080051        -0.068507
 C         2.568869        -0.902828        -0.577653
 C         3.393997         0.320210        -0.828027
 C         4.864432         0.153286        -0.950207
 O         2.659102         0.804398        -1.988272
 C         1.621940         1.227797        -0.927844
 C         2.632732         1.410977         0.235978
 O         1.871076         0.715201         1.166862
 H         0.096908        -1.575521         0.665326
 H        -0.737141        -0.018731         0.835736
 H        -0.525262        -0.829042        -0.827992
 H         3.015424        -1.464024         0.167138
 H         2.436373        -1.478801        -1.533656
 H         5.433037         0.855185        -1.608541
 H         5.480370         0.050494         0.049002
 H         5.007291        -0.868262        -1.332969
 H         0.797961         1.789539        -1.236339
 H         3.225897         2.339919         0.390610
