19
Iteration:  3718charge 0 multiplicity 1
 C        -0.050458        -0.708450         0.048711
 C         1.320981        -0.051097        -0.079773
 C         2.495268        -0.965027        -0.464774
 C         3.440619         0.313597        -0.819155
 C         4.896619         0.116887        -1.037597
 O         2.578573         0.952739        -1.882871
 C         1.670821         1.298806        -0.890692
 C         2.694227         1.365380         0.224958
 O         1.840589         0.667914         1.135717
 H        -0.010237        -1.567246         0.814478
 H        -0.855473        -0.001439         0.316063
 H        -0.142727        -1.144759        -0.993638
 H         2.976295        -1.548810         0.365589
 H         2.320799        -1.571732        -1.428707
 H         5.414441         1.074399        -1.318012
 H         5.240246        -0.465605        -0.065697
 H         5.041888        -0.472884        -1.981290
 H         0.806734         1.913755        -0.992627
 H         3.224693         2.255490         0.551561
