19
Iteration:  1251charge 0 multiplicity 1
 C        -0.114855        -0.656324         0.185490
 C         1.293019        -0.112546         0.031569
 C         2.547762        -0.978065        -0.420091
 C         3.345779         0.309900        -0.753727
 C         4.872825         0.235322        -1.043837
 O         2.677740         0.861870        -1.950638
 C         1.677411         1.225886        -1.060309
 C         2.645989         1.395008         0.164253
 O         1.918080         0.673005         1.127003
 H        -0.460392        -1.158464         1.135283
 H        -0.904244         0.165563        -0.098520
 H        -0.284403        -1.255452        -0.697903
 H         2.982307        -1.752049         0.350818
 H         2.353551        -1.554685        -1.422255
 H         5.288663         1.139323        -0.805841
 H         5.251460        -0.599719        -0.337516
 H         5.041190        -0.096170        -2.029456
 H         1.140931         2.067178        -1.522449
 H         3.188422         2.292309         0.459746
