19
Iteration:  1762charge 0 multiplicity 1
 C        -0.049480        -0.701419         0.133953
 C         1.324244        -0.033635        -0.032050
 C         2.542319        -0.847434        -0.413210
 C         3.404166         0.387100        -0.739235
 C         4.897754         0.080252        -0.985731
 O         2.609159         0.874994        -2.031989
 C         1.608940         1.245619        -0.990625
 C         2.635876         1.363734         0.177873
 O         1.898531         0.643065         1.133925
 H        -0.030905        -1.646870         0.697970
 H        -0.782886         0.089134         0.467082
 H        -0.438404        -1.126554        -0.808908
 H         2.955036        -1.645394         0.312854
 H         2.403288        -1.190035        -1.326210
 H         5.203039         0.949143        -1.576946
 H         5.478965         0.106354         0.038720
 H         5.044632        -0.844513        -1.574706
 H         0.705487         1.849255        -1.303173
 H         3.315530         2.080098         0.719127
