19
Iteration:  3581
 C        -0.025468        -0.723854        -0.026512
 C         1.311243        -0.006642        -0.052127
 C         2.630469        -0.911456        -0.418813
 C         3.368285         0.266129        -0.771573
 C         4.816903         0.043278        -1.194068
 O         2.620743         0.909996        -1.836010
 C         1.739945         1.323259        -0.878979
 C         2.659524         1.410006         0.259759
 O         1.757612         0.650786         1.142049
 H        -0.022130        -1.474122         0.714805
 H        -0.794085        -0.023682         0.291114
 H        -0.275533        -1.202967        -1.004511
 H         3.018902        -1.165853         0.539365
 H         2.478701        -1.708421        -1.152443
 H         5.323476         1.113903        -1.112998
 H         5.485434        -0.669410        -0.673353
 H         4.946561        -0.196823        -2.286311
 H         0.990992         2.175626        -0.987996
 H         3.120966         2.208344         0.858228
