19
Iteration:  3788
 C        -0.121796        -0.632647         0.106152
 C         1.265999        -0.137000        -0.024424
 C         2.545553        -0.923424        -0.512134
 C         3.428228         0.336351        -0.750481
 C         4.879216         0.228320        -1.075678
 O         2.675697         0.880505        -1.947691
 C         1.697429         1.199565        -0.915411
 C         2.708546         1.286607         0.241556
 O         1.801048         0.679571         1.158056
 H        -0.264353        -1.356540         0.891296
 H        -0.704454         0.253339         0.511976
 H        -0.553169        -1.038844        -0.855730
 H         2.890277        -1.607476         0.254155
 H         2.286727        -1.395735        -1.418033
 H         5.457862         1.105940        -1.263560
 H         5.443585        -0.479200        -0.460940
 H         5.141787        -0.079628        -2.079890
 H         0.920818         1.969883        -1.255160
 H         3.256943         2.207827         0.570510
