19
Iteration:   238charge 0 multiplicity 1
 C        -0.120995        -0.717118         0.082889
 C         1.287084        -0.047848        -0.096754
 C         2.563442        -0.882031        -0.476871
 C         3.430382         0.303534        -0.764934
 C         4.909396         0.197364        -1.050491
 O         2.601901         0.856165        -1.877374
 C         1.674374         1.249762        -0.974416
 C         2.648977         1.382468         0.222388
 O         1.865783         0.662189         1.166688
 H         0.141567        -1.553915         0.750679
 H        -0.941802        -0.090024         0.426024
 H        -0.313649        -1.175948        -0.949991
 H         2.842055        -1.292747         0.548096
 H         2.620421        -1.700109        -1.244361
 H         5.386358         1.172514        -1.303972
 H         5.391697        -0.332754        -0.244868
 H         5.048929        -0.450078        -2.005592
 H         0.867549         1.852072        -1.385109
 H         3.102012         2.283289         0.573012
