19
Iteration:  4801charge 0 multiplicity 1
 C         0.001467        -0.763110         0.155741
 C         1.306977        -0.041166        -0.110541
 C         2.474394        -0.914569        -0.418903
 C         3.416302         0.320911        -0.818568
 C         4.845755         0.088535        -0.972580
 O         2.697647         0.989916        -1.957037
 C         1.654241         1.305485        -0.956134
 C         2.642670         1.434632         0.118863
 O         1.827600         0.570122         1.146268
 H         0.180916        -0.968130         1.195605
 H        -0.978154        -0.159729         0.168383
 H        -0.254406        -1.689372        -0.459053
 H         2.570597        -1.579831         0.418395
 H         2.194450        -1.486037        -1.339674
 H         5.505228         0.914813        -0.635675
 H         5.219304        -0.834382        -0.544304
 H         5.094710        -0.049496        -2.036291
 H         1.120167         2.281134        -1.088191
 H         3.184600         2.281982         0.405289
