19
Iteration:  3265
 C        -0.047748        -0.701167         0.018595
 C         1.304821        -0.048503         0.016289
 C         2.526698        -0.915695        -0.441363
 C         3.460796         0.318979        -0.797651
 C         4.907373         0.071527        -1.108256
 O         2.574116         0.903232        -1.917150
 C         1.658449         1.265323        -0.855160
 C         2.687525         1.447785         0.289934
 O         1.851609         0.667821         1.106162
 H        -0.189667        -1.446520         0.742578
 H        -0.956796        -0.176852         0.211105
 H        -0.250647        -1.185857        -0.989706
 H         2.791294        -1.607068         0.301897
 H         2.442259        -1.560608        -1.288718
 H         5.246298         0.816329        -1.889653
 H         5.613129         0.185189        -0.365528
 H         5.037491        -0.919855        -1.431976
 H         0.806368         1.873155        -1.303145
 H         3.017237         2.468461         0.617416
