19
Iteration:  1056charge 0 multiplicity 1
 C        -0.150831        -0.656906         0.056459
 C         1.352448        -0.087516         0.073546
 C         2.580461        -0.947227        -0.325355
 C         3.399288         0.298007        -0.736830
 C         4.856444         0.175515        -1.120707
 O         2.678170         0.918625        -1.992851
 C         1.637841         1.294586        -0.972638
 C         2.702185         1.347882         0.173362
 O         1.836863         0.615545         1.128257
 H        -0.486600        -1.226273         0.959336
 H        -0.861461         0.236811        -0.029216
 H        -0.237656        -1.362717        -0.739152
 H         2.998046        -1.337107         0.604864
 H         2.597811        -1.751074        -1.022427
 H         5.360671         1.123251        -1.193163
 H         5.445930        -0.558556        -0.407128
 H         4.697910        -0.165217        -2.141799
 H         0.933090         1.941753        -1.488334
 H         3.122449         2.296693         0.608965
