19
Iteration:  4170
 C         0.060834        -0.689261         0.218680
 C         1.322000        -0.127076        -0.121559
 C         2.547553        -0.937033        -0.571443
 C         3.391082         0.343444        -0.838339
 C         4.958138         0.120863        -0.865330
 O         2.596608         0.903962        -2.011179
 C         1.608560         1.252454        -0.949719
 C         2.601282         1.350391         0.183726
 O         1.798407         0.734540         1.137609
 H         0.165197        -1.439721         0.934737
 H        -0.503089         0.187229         0.698275
 H        -0.521349        -1.143779        -0.594310
 H         2.886638        -1.509385         0.362385
 H         2.300508        -1.674304        -1.349470
 H         5.504569         1.039061        -0.627416
 H         5.137970        -0.642971        -0.135352
 H         5.221723        -0.239294        -1.881185
 H         0.878853         1.953509        -1.373418
 H         3.074291         2.328552         0.354318
