19
Iteration:  4174
 C         0.082853        -0.700089         0.222568
 C         1.269670        -0.129167        -0.122226
 C         2.563673        -0.933887        -0.555332
 C         3.416711         0.347210        -0.854893
 C         4.953508         0.129399        -0.864104
 O         2.597019         0.927028        -2.005730
 C         1.632153         1.266822        -0.982326
 C         2.609118         1.291535         0.160438
 O         1.784936         0.740948         1.168963
 H         0.127953        -1.471672         1.107188
 H        -0.580983         0.079973         0.627159
 H        -0.545200        -1.085257        -0.620171
 H         2.840761        -1.417245         0.346081
 H         2.283436        -1.677504        -1.317578
 H         5.631750         1.025573        -0.650539
 H         5.120191        -0.595434        -0.068480
 H         5.015234        -0.238680        -1.885210
 H         0.812244         1.981913        -1.384788
 H         3.191579         2.289324         0.269039
