19
Iteration:  4359
 C         0.005208        -0.724555         0.177095
 C         1.328765        -0.059790        -0.055259
 C         2.495886        -0.881905        -0.485269
 C         3.426107         0.352025        -0.774243
 C         4.902132         0.125646        -1.013341
 O         2.652675         0.846548        -1.949128
 C         1.662373         1.210814        -0.971366
 C         2.619669         1.444480         0.204325
 O         1.803896         0.676164         1.127616
 H         0.063286        -1.466717         1.014370
 H        -0.638661         0.048074         0.446749
 H        -0.285852        -1.302565        -0.697214
 H         2.777352        -1.634568         0.257077
 H         2.225752        -1.330841        -1.468555
 H         5.503903         0.985058        -0.659728
 H         5.274959        -0.811334        -0.523854
 H         5.102006        -0.033565        -2.082353
 H         0.857100         1.868165        -1.326516
 H         2.875915         2.552786         0.293309
