19
Iteration:  4772charge 0 multiplicity 1
 C        -0.062143        -0.695347         0.136854
 C         1.318565        -0.086011        -0.037991
 C         2.547799        -0.923610        -0.583489
 C         3.422085         0.320024        -0.772860
 C         4.878610         0.152832        -1.013402
 O         2.668503         0.920765        -1.913167
 C         1.642873         1.265360        -0.994500
 C         2.637399         1.403435         0.203934
 O         1.795298         0.686535         1.198060
 H        -0.090410        -1.255791         1.123949
 H        -0.856654        -0.054560         0.028599
 H        -0.284628        -1.540715        -0.512505
 H         2.767135        -1.558431         0.297521
 H         2.296252        -1.551792        -1.428949
 H         5.608669         0.928380        -1.033945
 H         5.313252        -0.718377        -0.436854
 H         4.969876        -0.316199        -2.067085
 H         1.047061         2.028896        -1.297778
 H         3.525253         1.928277         0.600062
