19
Iteration:   577charge 0 multiplicity 1
 C        -0.010300        -0.669485         0.028606
 C         1.281039        -0.093593        -0.143475
 C         2.495180        -0.931651        -0.429201
 C         3.405996         0.353419        -0.741952
 C         4.911809         0.187733        -1.032171
 O         2.632219         0.933815        -1.912720
 C         1.617035         1.216129        -0.898822
 C         2.667746         1.380318         0.190051
 O         1.885628         0.605642         1.133961
 H        -0.096553        -1.400548         0.845418
 H        -0.733408         0.064276         0.622152
 H        -0.481262        -1.023542        -0.823338
 H         2.706941        -1.804947         0.347884
 H         2.460996        -1.326225        -1.392027
 H         5.427317         0.986839        -1.534829
 H         5.432320        -0.078249        -0.036899
 H         4.958472        -0.729023        -1.639038
 H         0.767217         1.926254        -1.036239
 H         3.194691         2.277984         0.519315
