19
Iteration:  2682charge 0 multiplicity 1
 C        -0.063278        -0.667555         0.264965
 C         1.264697         0.018019        -0.084524
 C         2.562103        -0.951705        -0.488677
 C         3.393746         0.336944        -0.822593
 C         4.938168         0.084057        -0.940832
 O         2.671870         0.885860        -1.986692
 C         1.707264         1.326749        -0.991846
 C         2.674084         1.378191         0.091675
 O         1.778641         0.637243         1.103730
 H         0.241577        -1.574904         0.801050
 H        -0.695129        -0.122734         1.086792
 H        -0.836948        -1.125398        -0.417677
 H         2.698537        -1.395599         0.440695
 H         2.315819        -1.652606        -1.336523
 H         5.473368         0.858856        -1.371306
 H         5.390705        -0.060553         0.002985
 H         4.906940        -0.864979        -1.541081
 H         0.828417         1.898307        -1.333199
 H         3.092013         2.216943         0.537770
