19
Iteration:   752
 C        -0.106248        -0.587101         0.111018
 C         1.238255        -0.071369        -0.114303
 C         2.604443        -0.922646        -0.493869
 C         3.419875         0.315317        -0.797546
 C         4.929894         0.157187        -1.013258
 O         2.621415         0.889253        -1.929550
 C         1.590621         1.226732        -0.958328
 C         2.640714         1.352483         0.220955
 O         1.894948         0.586380         1.163881
 H        -0.060000        -1.460871         0.743804
 H        -0.713897         0.259314         0.608895
 H        -0.546189        -0.894703        -0.777035
 H         3.089731        -1.485378         0.387784
 H         2.598398        -1.551135        -1.342315
 H         5.296280         1.148788        -1.313498
 H         5.346453        -0.046209         0.005570
 H         5.239183        -0.628448        -1.711685
 H         0.868959         1.956153        -1.308692
 H         3.148498         2.277969         0.590630
