19
Iteration:  2615
 C        -0.114629        -0.582920         0.144936
 C         1.292873         0.006880        -0.106034
 C         2.514915        -0.914375        -0.440838
 C         3.423289         0.208487        -0.831936
 C         4.896862         0.227884        -0.930523
 O         2.561085         0.827509        -1.960063
 C         1.688390         1.209913        -0.935146
 C         2.736994         1.356128         0.143630
 O         1.890947         0.609279         1.099659
 H        -0.016650        -1.437197         0.854561
 H        -0.517765         0.193604         0.902395
 H        -0.771018        -0.910985        -0.746903
 H         2.837105        -1.253374         0.497083
 H         2.323110        -1.609745        -1.335371
 H         5.412914         1.172845        -1.001523
 H         5.323319        -0.210633        -0.083739
 H         5.182818        -0.355311        -1.881447
 H         0.832473         1.872695        -1.348130
 H         3.238755         2.236916         0.464772
