19
Iteration:  4155
 C        -0.029790        -0.658024         0.215431
 C         1.305843        -0.047445        -0.048981
 C         2.554429        -0.906893        -0.499762
 C         3.435829         0.288867        -0.834650
 C         4.863918         0.149575        -0.906066
 O         2.625396         0.852143        -1.925395
 C         1.636231         1.186043        -1.005541
 C         2.609001         1.517570         0.133241
 O         1.883036         0.611744         1.044523
 H         0.058207        -1.524233         0.953246
 H        -0.789848        -0.083914         0.687046
 H        -0.539744        -0.885796        -0.713979
 H         2.911502        -1.665967         0.202783
 H         2.430392        -1.227944        -1.556678
 H         5.340400         1.045912        -0.521902
 H         5.216620        -0.584898        -0.068534
 H         5.311567        -0.054939        -1.915476
 H         0.698262         1.687848        -1.168214
 H         3.065916         2.351731         0.634091
