19
Iteration:  4500
 C        -0.053840        -0.764172         0.196134
 C         1.289612        -0.063621        -0.038051
 C         2.510460        -0.917818        -0.616373
 C         3.411359         0.343540        -0.786815
 C         4.859890         0.127658        -0.945289
 O         2.586839         0.891517        -1.894543
 C         1.667454         1.254650        -0.933709
 C         2.684834         1.373100         0.163754
 O         1.880548         0.766152         1.085663
 H         0.115909        -1.817462         0.596053
 H        -0.779628        -0.344185         0.850703
 H        -0.541424        -0.909332        -0.759438
 H         2.916673        -1.623882         0.129157
 H         2.445518        -1.423285        -1.629796
 H         5.471102         0.852079        -1.413189
 H         5.352613         0.063654         0.003227
 H         5.155786        -0.864310        -1.321647
 H         0.932020         1.932821        -1.291351
 H         3.354064         2.217218         0.392979
