19
Iteration:  1749charge 0 multiplicity 1
 C        -0.040019        -0.679999         0.039484
 C         1.321949        -0.104426        -0.105978
 C         2.590292        -0.916616        -0.416994
 C         3.430055         0.261811        -0.725926
 C         4.852526         0.126968        -1.068314
 O         2.536487         0.906016        -1.921581
 C         1.661475         1.206198        -0.930501
 C         2.693065         1.424000         0.217024
 O         1.848018         0.718373         1.131978
 H        -0.026877        -1.493388         0.823000
 H        -0.775952         0.092329         0.452199
 H        -0.398816        -0.971884        -0.895012
 H         2.903815        -1.476696         0.498822
 H         2.573165        -1.675114        -1.196125
 H         5.250129         0.873896        -1.720177
 H         5.506146         0.208871        -0.134892
 H         5.096257        -0.915203        -1.528015
 H         0.817902         1.978911        -1.216071
 H         3.129283         2.411673         0.534672
