19
Iteration:  1703charge 0 multiplicity 1
 C        -0.133103        -0.646604         0.002466
 C         1.283040        -0.070139        -0.082470
 C         2.534658        -0.987150        -0.401345
 C         3.485931         0.279584        -0.613410
 C         4.853924         0.281085        -1.098454
 O         2.580495         0.760102        -1.952145
 C         1.704850         1.254486        -0.917932
 C         2.712967         1.395825         0.197957
 O         1.887383         0.683026         1.165236
 H        -0.214569        -1.352115         0.864181
 H        -0.855552         0.144866         0.185000
 H        -0.313128        -1.053027        -0.997469
 H         2.766993        -1.543600         0.433252
 H         2.519811        -1.712560        -1.328351
 H         5.028592         1.233974        -1.706099
 H         5.645281         0.196866        -0.407324
 H         4.875602        -0.605584        -1.845478
 H         0.879719         2.040148        -1.012959
 H         3.218193         2.307699         0.461229
