19
Iteration:  3305charge 0 multiplicity 1
 C        -0.096462        -0.700727         0.231491
 C         1.314464        -0.051304        -0.077747
 C         2.439227        -0.931521        -0.565170
 C         3.383304         0.296056        -0.835323
 C         4.885524         0.163316        -0.876623
 O         2.623930         0.960638        -1.973596
 C         1.697620         1.288345        -0.974966
 C         2.679523         1.386279         0.143541
 O         1.909281         0.582218         1.065861
 H         0.294210        -1.340717         1.136743
 H        -0.755558         0.059114         0.618877
 H        -0.408245        -1.377209        -0.591497
 H         2.897484        -1.547978         0.359477
 H         2.286597        -1.598074        -1.440827
 H         5.319693         1.126177        -1.026273
 H         5.160259        -0.148695         0.204665
 H         5.277218        -0.538532        -1.669864
 H         0.879885         1.923009        -1.218001
 H         3.219473         2.191514         0.686401
