19
Iteration:   317charge 0 multiplicity 1
 C         0.010152        -0.637951         0.198047
 C         1.281640        -0.091574        -0.117629
 C         2.570217        -0.971816        -0.517282
 C         3.368585         0.253086        -0.801255
 C         4.827685         0.286353        -0.903450
 O         2.662476         0.848571        -1.946321
 C         1.623894         1.272020        -1.056095
 C         2.619789         1.368593         0.211304
 O         1.887333         0.630462         1.102095
 H         0.177926        -1.371586         1.022046
 H        -0.718180         0.222109         0.545947
 H        -0.323353        -1.134840        -0.683276
 H         2.783555        -1.618423         0.449206
 H         2.298833        -1.529834        -1.352823
 H         5.357624         1.146421        -0.480322
 H         5.234946        -0.757647        -0.534817
 H         5.069559         0.338326        -1.969039
 H         0.856932         1.984022        -1.312817
 H         3.184459         2.146346         0.743611
