19
Iteration:  1815
 C        -0.027666        -0.639373         0.343660
 C         1.293924        -0.045078        -0.042556
 C         2.441228        -0.909905        -0.575370
 C         3.409071         0.307073        -0.823593
 C         4.910818         0.244271        -0.880462
 O         2.623548         0.900473        -2.035899
 C         1.713402         1.237415        -1.033630
 C         2.697431         1.299038         0.131646
 O         1.809808         0.563470         1.088592
 H         0.046622        -1.458069         1.113695
 H        -0.779649         0.173650         0.595521
 H        -0.448235        -1.107398        -0.495096
 H         2.925040        -1.543422         0.274692
 H         2.406174        -1.502843        -1.466333
 H         5.362140         1.171571        -0.666296
 H         5.167585        -0.423532         0.006901
 H         5.224822        -0.239233        -1.869984
 H         1.129684         2.206207        -1.313289
 H         3.113078         2.211941         0.620398
