19
Iteration:   604charge 0 multiplicity 1
 C        -0.102077        -0.657670         0.175527
 C         1.242301        -0.050585        -0.029758
 C         2.527972        -0.894788        -0.534906
 C         3.369631         0.230894        -0.889827
 C         4.901260         0.253332        -0.919878
 O         2.700174         0.897803        -2.008832
 C         1.651547         1.270095        -0.948767
 C         2.666001         1.299306         0.214702
 O         1.902104         0.593269         1.136483
 H        -0.182147        -1.602805         0.728451
 H        -0.674176        -0.076342         0.766800
 H        -0.652130        -0.911535        -0.826937
 H         2.886479        -1.555977         0.154430
 H         2.300598        -1.391622        -1.609540
 H         5.188701         1.274279        -1.295980
 H         5.187687         0.347979         0.083712
 H         5.434166        -0.625763        -1.341997
 H         0.884264         2.029880        -1.170843
 H         3.256138         2.080871         0.749090
