19
Iteration:  1676charge 0 multiplicity 1
 C        -0.043110        -0.602117         0.151345
 C         1.331192        -0.046434        -0.008015
 C         2.503835        -0.900382        -0.463480
 C         3.437158         0.257495        -0.842590
 C         4.879233         0.229585        -1.002886
 O         2.587943         0.867872        -1.981120
 C         1.678399         1.163329        -1.020977
 C         2.663832         1.349828         0.208250
 O         1.850251         0.630741         1.148634
 H        -0.083705        -1.348916         0.952913
 H        -0.750697         0.262323         0.253978
 H        -0.323272        -1.048448        -0.833602
 H         2.958174        -1.454062         0.491963
 H         2.261532        -1.677400        -1.196653
 H         5.286487         1.220900        -0.951536
 H         5.294042        -0.201430        -0.026121
 H         5.262535        -0.317211        -1.811933
 H         0.821744         1.735457        -1.318607
 H         3.196738         2.269457         0.585575
