19
Iteration:  4116charge 0 multiplicity 1
 C        -0.105915        -0.604143         0.101404
 C         1.325472        -0.072895        -0.105149
 C         2.582565        -0.992235        -0.376968
 C         3.406115         0.187918        -0.846722
 C         4.895820         0.303658        -1.073165
 O         2.619447         0.868797        -1.932576
 C         1.703987         1.193271        -0.870985
 C         2.681243         1.321797         0.214695
 O         1.792171         0.702482         1.124394
 H        -0.038554        -1.430360         0.741956
 H        -0.740883         0.255081         0.531249
 H        -0.471818        -0.956141        -0.886183
 H         2.872269        -1.575014         0.541636
 H         2.279946        -1.712243        -1.130523
 H         5.148575         1.377584        -1.076312
 H         5.405335        -0.196963        -0.276631
 H         5.275218        -0.143536        -1.996749
 H         0.939894         1.777824        -1.354115
 H         3.213693         2.248620         0.410105
