19
Iteration:  1648charge 0 multiplicity 1
 C        -0.088800        -0.701549         0.313430
 C         1.283632        -0.113190        -0.075150
 C         2.560086        -0.913391        -0.487703
 C         3.428220         0.330271        -0.795775
 C         4.882849         0.137958        -0.852247
 O         2.635655         0.951103        -1.940068
 C         1.595315         1.260182        -1.027651
 C         2.661745         1.346786         0.019923
 O         1.905050         0.667594         1.023112
 H         0.059684        -1.488330         1.082968
 H        -0.636771         0.154291         0.625081
 H        -0.698835        -1.210700        -0.475768
 H         2.853269        -1.567977         0.214867
 H         2.416528        -1.524709        -1.466580
 H         5.499179         1.044084        -0.496994
 H         5.097595        -0.577290        -0.094238
 H         5.312043        -0.284567        -1.828536
 H         0.764083         1.970141        -1.249296
 H         3.148787         2.261693         0.303255
