19
Iteration:   844
 C        -0.060919        -0.658992         0.099700
 C         1.333709        -0.035120        -0.081425
 C         2.551660        -0.919838        -0.466330
 C         3.357232         0.298724        -0.757057
 C         4.876020         0.082645        -1.048621
 O         2.672340         0.951038        -1.873859
 C         1.602240         1.214705        -0.893386
 C         2.695925         1.367043         0.169337
 O         1.808528         0.672934         1.095158
 H        -0.187698        -1.424371         0.915818
 H        -0.832986         0.039604         0.268339
 H        -0.339351        -1.356660        -0.833593
 H         2.988229        -1.312438         0.430399
 H         2.721236        -1.765414        -1.230954
 H         5.430105         1.087646        -1.174095
 H         5.608064        -0.396517        -0.432404
 H         5.048750        -0.452644        -2.032966
 H         0.825517         1.956160        -1.147295
 H         3.112426         2.292490         0.522165
