19
Iteration:  3217charge 0 multiplicity 1
 C        -0.105280        -0.557592         0.048689
 C         1.295578        -0.116294        -0.013674
 C         2.586310        -1.003079        -0.330759
 C         3.386482         0.237285        -0.699746
 C         4.859678         0.241955        -1.147682
 O         2.624056         0.928283        -1.951728
 C         1.720296         1.261200        -0.956841
 C         2.664287         1.343035         0.165463
 O         1.857975         0.627226         1.103335
 H        -0.387502        -1.571464         0.631326
 H        -0.934282         0.044106         0.454155
 H        -0.440407        -0.784709        -0.990642
 H         2.885792        -1.520296         0.704692
 H         2.521402        -1.864683        -1.053944
 H         5.124070         1.095357        -1.667325
 H         5.520977         0.278937        -0.211998
 H         5.186844        -0.688838        -1.667511
 H         0.965102         1.997105        -0.973927
 H         3.300357         2.085764         0.651652
