19
Iteration:   837
 C        -0.082934        -0.699046         0.133323
 C         1.290523        -0.030400        -0.116822
 C         2.580656        -0.920804        -0.481082
 C         3.325153         0.262021        -0.821205
 C         4.917251         0.141599        -1.036709
 O         2.643922         0.927817        -1.915868
 C         1.677528         1.278198        -0.939496
 C         2.677906         1.386317         0.207619
 O         1.818142         0.628373         1.156331
 H        -0.081900        -1.408064         1.009916
 H        -0.858010         0.085106         0.391829
 H        -0.360720        -1.059949        -0.820200
 H         3.071496        -1.371263         0.476159
 H         2.397056        -1.688168        -1.171972
 H         5.421644         1.032718        -1.147665
 H         5.472572        -0.384476        -0.106345
 H         5.135063        -0.499195        -1.863198
 H         0.910736         1.924541        -1.370476
 H         3.204779         2.293703         0.495818
