19
Iteration:  2880
 C        -0.063148        -0.541487         0.055159
 C         1.315472        -0.052188        -0.020513
 C         2.504539        -0.986983        -0.424789
 C         3.431456         0.217751        -0.786808
 C         4.910123         0.229096        -1.070842
 O         2.620796         0.756063        -1.862712
 C         1.646135         1.157786        -0.904266
 C         2.638458         1.451149         0.160199
 O         1.864088         0.715457         1.104039
 H        -0.221199        -1.449023         0.728780
 H        -0.708988         0.262670         0.429239
 H        -0.420462        -0.844762        -0.914719
 H         2.902411        -1.573795         0.380073
 H         2.482558        -1.519803        -1.351634
 H         5.158368         1.143726        -1.608398
 H         5.317182         0.136854         0.004917
 H         5.308139        -0.587372        -1.709120
 H         0.814815         1.718776        -1.225329
 H         3.353976         2.299619         0.401433
