19
Iteration:  3866
 C        -0.063478        -0.697050         0.166481
 C         1.281144        -0.139153        -0.068493
 C         2.442614        -0.946092        -0.509072
 C         3.403279         0.318884        -0.800793
 C         4.951331         0.116315        -0.962642
 O         2.653161         1.037987        -1.957752
 C         1.650820         1.269280        -0.974918
 C         2.644837         1.351526         0.200081
 O         1.885645         0.620334         1.148154
 H        -0.110777        -1.513849         0.933647
 H        -0.618414         0.264964         0.519251
 H        -0.422418        -1.046582        -0.836534
 H         2.713792        -1.607831         0.317120
 H         2.216803        -1.365173        -1.444156
 H         5.436495         0.996644        -1.591653
 H         5.506687         0.098425         0.004936
 H         5.265233        -0.929220        -1.431546
 H         0.723335         1.828694        -1.304229
 H         3.283939         2.295703         0.270299
