19
Iteration:  2328charge 0 multiplicity 1
 C        -0.179821        -0.630578         0.334012
 C         1.308583        -0.045929        -0.014081
 C         2.482731        -0.886521        -0.633433
 C         3.402825         0.337517        -0.915525
 C         4.871335         0.213205        -0.855029
 O         2.691816         0.944875        -2.023912
 C         1.626503         1.292371        -0.973329
 C         2.727012         1.294270         0.116146
 O         1.914508         0.486764         1.111977
 H        -0.194416        -1.389164         1.111513
 H        -0.756765         0.219383         0.462583
 H        -0.612539        -1.252521        -0.457214
 H         2.773542        -1.614625         0.291369
 H         2.273326        -1.372178        -1.543882
 H         5.438906         1.155970        -0.709333
 H         5.223708        -0.272786         0.107226
 H         5.225770        -0.408455        -1.634509
 H         0.956047         1.993018        -1.320914
 H         3.445931         1.979070         0.657987
