19
Iteration:   539charge 0 multiplicity 1
 C        -0.110010        -0.740269         0.010724
 C         1.331584        -0.097292        -0.039817
 C         2.551490        -0.977892        -0.318665
 C         3.458270         0.341561        -0.743691
 C         4.933965         0.155776        -1.177329
 O         2.633149         0.960488        -1.930786
 C         1.651985         1.316678        -0.893847
 C         2.670019         1.353711         0.214230
 O         1.786161         0.665147         1.140740
 H        -0.159960        -1.421104         0.873033
 H        -0.759241         0.055264         0.079149
 H        -0.306940        -1.408886        -0.945454
 H         2.801449        -1.535415         0.502218
 H         2.293819        -1.561353        -1.305150
 H         5.577417         1.104612        -1.185552
 H         5.398928        -0.472678        -0.455684
 H         4.956629        -0.436943        -2.125401
 H         0.851911         2.062154        -1.047574
 H         3.131223         2.218803         0.725734
