19
Iteration:   861charge 0 multiplicity 1
 C        -0.056783        -0.699565         0.028518
 C         1.323388        -0.105108        -0.073509
 C         2.567471        -0.895671        -0.336604
 C         3.425486         0.351002        -0.707745
 C         4.854709         0.130256        -1.179781
 O         2.674931         0.930787        -1.916908
 C         1.709799         1.213813        -0.944736
 C         2.608098         1.383959         0.217020
 O         1.811642         0.668087         1.178974
 H        -0.178047        -1.163404         0.992534
 H        -0.803134         0.172442         0.010870
 H        -0.181587        -1.254224        -0.832047
 H         2.817167        -1.726402         0.386540
 H         2.154338        -1.380745        -1.216571
 H         5.619988         0.935638        -1.217378
 H         5.185278        -0.620005        -0.424685
 H         4.724105        -0.456713        -2.088212
 H         0.908492         1.869656        -1.293209
 H         3.127920         2.338271         0.547501
