19
Iteration:  3752charge 0 multiplicity 1
 C        -0.029201        -0.698987        -0.019224
 C         1.325963        -0.033060        -0.079970
 C         2.493578        -0.870706        -0.340932
 C         3.360409         0.357950        -0.809491
 C         4.902187         0.113406        -1.215894
 O         2.671710         0.915137        -1.871526
 C         1.678320         1.250093        -0.881738
 C         2.642910         1.340219         0.282641
 O         1.848469         0.645489         1.178752
 H        -0.046309        -1.517491         0.779641
 H        -0.860881         0.002429         0.117987
 H        -0.233496        -1.238399        -1.042831
 H         2.882026        -1.275256         0.619857
 H         2.345500        -1.688980        -1.146392
 H         5.435054         1.040989        -1.012931
 H         5.237320        -0.749669        -0.461798
 H         4.771223        -0.311505        -2.208358
 H         0.882375         1.865268        -1.274256
 H         3.119442         2.238209         0.585160
