19
Iteration:  3526charge 0 multiplicity 1
 C        -0.090791        -0.573488         0.165783
 C         1.338133        -0.117714        -0.147518
 C         2.548646        -1.030791        -0.575339
 C         3.349339         0.303249        -0.868852
 C         4.911008         0.220045        -0.959140
 O         2.595794         0.926075        -1.907130
 C         1.696758         1.251511        -0.898890
 C         2.673857         1.325599         0.199236
 O         1.868043         0.631421         1.159847
 H        -0.044347        -1.334188         0.901150
 H        -0.719782         0.234067         0.419727
 H        -0.599568        -0.960343        -0.749767
 H         2.816724        -1.671952         0.228911
 H         2.377977        -1.629215        -1.509763
 H         5.319905         1.300062        -0.962172
 H         5.157634        -0.241084         0.017997
 H         5.317841        -0.295980        -1.841899
 H         0.799751         1.913250        -1.075832
 H         3.371484         2.059982         0.632619
