19
Iteration:  3659charge 0 multiplicity 1
 C        -0.090180        -0.561783         0.250690
 C         1.266082        -0.081877        -0.144318
 C         2.502547        -0.940857        -0.601111
 C         3.401608         0.232760        -0.910997
 C         4.927716         0.263584        -0.891263
 O         2.668668         0.978538        -1.971461
 C         1.659107         1.234397        -0.936052
 C         2.705096         1.252702         0.140556
 O         1.828107         0.516131         1.171831
 H        -0.101761        -1.337569         0.962053
 H        -0.641073         0.306124         0.745339
 H        -0.718994        -0.872171        -0.580601
 H         2.925309        -1.510810         0.282947
 H         2.280309        -1.633511        -1.392205
 H         5.313475         1.335840        -1.296724
 H         5.367421         0.355496         0.088467
 H         5.577969        -0.573854        -1.322001
 H         0.738372         1.897665        -1.085034
 H         3.188816         2.160204         0.582306
