19
Iteration:  3099
 C        -0.069204        -0.659019         0.021960
 C         1.286610        -0.036706         0.014767
 C         2.516475        -0.958396        -0.394091
 C         3.372686         0.293097        -0.764760
 C         4.890172         0.174505        -1.150688
 O         2.713281         0.845247        -1.893180
 C         1.662740         1.188527        -0.923752
 C         2.661804         1.433948         0.145686
 O         1.851328         0.713307         1.206117
 H        -0.264682        -1.373669         0.892745
 H        -0.914398        -0.074795         0.006270
 H        -0.188711        -1.297493        -0.845803
 H         2.706110        -1.663466         0.451415
 H         2.098098        -1.491287        -1.215561
 H         5.196200         1.226292        -1.439594
 H         5.443811        -0.326765        -0.243756
 H         4.942046        -0.573533        -1.990019
 H         1.015459         1.949091        -1.237849
 H         3.423222         2.297710         0.323987
