19
Iteration:   183charge 0 multiplicity 1
 C        -0.090844        -0.639067         0.005179
 C         1.344187        -0.124061        -0.078659
 C         2.556535        -0.923085        -0.377962
 C         3.409074         0.291417        -0.791263
 C         4.885970         0.206193        -1.071103
 O         2.615933         0.829641        -1.915238
 C         1.642036         1.308152        -0.889250
 C         2.638499         1.441447         0.247022
 O         1.879580         0.584735         1.121382
 H         0.027436        -1.217624         0.931115
 H        -0.737881         0.167931         0.216717
 H        -0.366954        -1.283082        -0.929166
 H         2.926141        -1.602975         0.397984
 H         2.490071        -1.554400        -1.348056
 H         5.018122         0.741117        -2.065102
 H         5.432350         0.788601        -0.398608
 H         5.276810        -0.893476        -1.096316
 H         0.844158         1.992531        -1.221583
 H         2.879001         2.332061         0.779850
