19
Iteration:   835charge 0 multiplicity 1
 C        -0.085958        -0.694479         0.144296
 C         1.273654        -0.040244        -0.111437
 C         2.580126        -0.925104        -0.471114
 C         3.351907         0.264725        -0.841486
 C         4.922803         0.151404        -1.025819
 O         2.636428         0.920386        -1.929882
 C         1.695123         1.295334        -0.954605
 C         2.666528         1.387369         0.218567
 O         1.823129         0.619995         1.167324
 H        -0.026567        -1.426820         1.023658
 H        -0.808805         0.065378         0.399598
 H        -0.408403        -1.055442        -0.891584
 H         3.030314        -1.373569         0.465464
 H         2.302821        -1.671364        -1.220858
 H         5.406555         1.083182        -1.166217
 H         5.357521        -0.361025        -0.061078
 H         5.141111        -0.519078        -1.857203
 H         0.917217         1.936155        -1.397126
 H         3.225075         2.246803         0.494944
