19
Iteration:    28charge 0 multiplicity 1
 C        -0.090800        -0.650032        -0.014112
 C         1.295364        -0.063105        -0.045545
 C         2.581419        -0.960415        -0.439216
 C         3.429647         0.256530        -0.767648
 C         4.861665         0.244210        -1.152004
 O         2.658026         0.958556        -1.905546
 C         1.719664         1.233952        -0.863127
 C         2.732203         1.297060         0.247981
 O         1.721540         0.583115         1.198539
 H        -0.272536        -1.432617         0.736497
 H        -0.793798         0.203706         0.170757
 H        -0.184463        -1.129396        -1.053925
 H         2.913332        -1.398933         0.507511
 H         2.429870        -1.584393        -1.364047
 H         5.467672        -0.639073        -0.832332
 H         4.908419         0.462047        -2.267967
 H         5.368197         1.153358        -0.722322
 H         0.922572         1.988289        -1.029219
 H         3.158035         2.243627         0.668387
