19
Iteration:   812charge 0 multiplicity 1
 C        -0.045382        -0.646764         0.207946
 C         1.292319        -0.043004        -0.040889
 C         2.409907        -0.932020        -0.537744
 C         3.326335         0.314497        -0.786971
 C         4.916129         0.251937        -0.894087
 O         2.661312         0.858788        -2.011778
 C         1.668081         1.231669        -0.940620
 C         2.746411         1.308931         0.155354
 O         1.880104         0.603537         1.077879
 H         0.055171        -1.564757         0.873768
 H        -0.693060         0.004991         0.739038
 H        -0.516509        -0.799446        -0.866449
 H         2.693686        -1.692299         0.192801
 H         2.199407        -1.358794        -1.586044
 H         5.310619         1.232988        -1.250639
 H         5.390760         0.087443         0.116137
 H         5.322291        -0.547858        -1.554727
 H         0.970777         2.059405        -1.173085
 H         3.181336         2.190558         0.580688
