19
Iteration:  2742
 C        -0.142987        -0.575894        -0.050636
 C         1.368567        -0.041863         0.030122
 C         2.567383        -0.900467        -0.380337
 C         3.479849         0.299077        -0.767556
 C         4.865746         0.221541        -1.105399
 O         2.540336         0.699332        -1.914711
 C         1.635846         1.215804        -0.899763
 C         2.683972         1.354673         0.167269
 O         1.906903         0.703316         1.179803
 H        -0.571271        -0.927754         0.899820
 H        -0.539482         0.312535        -0.366972
 H        -0.167223        -1.229557        -0.908713
 H         2.762382        -1.484884         0.659463
 H         2.378504        -1.713448        -1.095925
 H         5.310422         1.255555        -1.379804
 H         5.508698        -0.298579        -0.359741
 H         5.088450        -0.420473        -1.985442
 H         0.740786         1.765854        -1.248573
 H         3.175334         2.256130         0.715968
