19
Iteration:  3868
 C        -0.075517        -0.697483         0.161364
 C         1.267633        -0.147773        -0.075773
 C         2.445314        -0.942089        -0.485669
 C         3.412725         0.328943        -0.795959
 C         4.946724         0.111969        -0.969854
 O         2.656181         1.038245        -1.953360
 C         1.657819         1.282208        -0.977605
 C         2.657201         1.357085         0.204441
 O         1.881915         0.616401         1.139715
 H        -0.045983        -1.500943         0.918007
 H        -0.585272         0.199968         0.481445
 H        -0.379335        -1.031921        -0.784328
 H         2.732123        -1.621582         0.315070
 H         2.245134        -1.411436        -1.438740
 H         5.373490         0.988289        -1.558850
 H         5.477128         0.129836        -0.067981
 H         5.118163        -0.893573        -1.442571
 H         0.771802         1.767055        -1.271462
 H         3.282568         2.226223         0.228026
