19
Iteration:  3200charge 0 multiplicity 1
 C        -0.106916        -0.626142         0.098323
 C         1.268845        -0.056355        -0.096608
 C         2.518145        -0.925104        -0.430409
 C         3.398287         0.252362        -0.853996
 C         4.940336         0.236117        -0.952570
 O         2.575611         0.834940        -1.958996
 C         1.655330         1.249744        -0.950658
 C         2.748030         1.315836         0.163878
 O         1.900915         0.624039         1.190211
 H        -0.171091        -1.443551         0.737793
 H        -0.641604         0.243976         0.551225
 H        -0.603899        -0.805440        -0.863603
 H         2.856421        -1.382137         0.429651
 H         2.289082        -1.537487        -1.281981
 H         5.178464         1.333251        -1.332742
 H         5.474908        -0.035383        -0.058809
 H         5.207571        -0.485489        -1.720912
 H         0.879204         1.973727        -1.384640
 H         3.185450         2.266066         0.579408
