19
Iteration:  2332charge 0 multiplicity 1
 C        -0.130254        -0.632814         0.331047
 C         1.314736        -0.020695        -0.036522
 C         2.492913        -0.882488        -0.633000
 C         3.413072         0.334870        -0.891810
 C         4.873781         0.194197        -0.852376
 O         2.678419         0.946130        -2.002145
 C         1.655163         1.270814        -0.958550
 C         2.722136         1.300814         0.122874
 O         1.889005         0.481352         1.113855
 H        -0.308175        -1.281714         1.201919
 H        -0.944427         0.184050         0.473968
 H        -0.508888        -1.269825        -0.536545
 H         2.757433        -1.565781         0.133443
 H         2.191173        -1.417635        -1.566901
 H         5.450100         1.196182        -0.775518
 H         5.150319        -0.267450         0.085985
 H         5.094808        -0.435565        -1.797699
 H         0.854048         1.988501        -1.385656
 H         3.434616         2.087788         0.483601
