19
Iteration:  3427
 C        -0.066549        -0.742397        -0.034690
 C         1.278952        -0.077638        -0.083305
 C         2.542107        -0.843161        -0.331464
 C         3.363527         0.324514        -0.704756
 C         4.831410         0.044272        -1.222599
 O         2.653395         0.968373        -1.932758
 C         1.678428         1.255333        -0.883986
 C         2.716057         1.380754         0.270604
 O         1.847013         0.650162         1.160043
 H         0.035227        -1.513767         0.727233
 H        -0.793996        -0.056874         0.327945
 H        -0.294837        -1.153939        -1.033495
 H         2.897917        -1.356123         0.546557
 H         2.518771        -1.553770        -1.183384
 H         5.235609         1.053766        -1.376554
 H         5.387513        -0.202095        -0.392527
 H         4.985680        -0.682395        -1.986064
 H         1.005236         2.101327        -1.099572
 H         3.229221         2.207321         0.808184
