19
Iteration:   992charge 0 multiplicity 1
 C        -0.046278        -0.699750         0.169663
 C         1.240418        -0.041981        -0.102774
 C         2.429492        -0.956476        -0.466828
 C         3.405926         0.272779        -0.769069
 C         4.895343         0.183786        -0.910834
 O         2.666018         0.958832        -2.000548
 C         1.641790         1.235364        -0.940319
 C         2.665592         1.324501         0.118854
 O         1.945632         0.673761         1.108966
 H         0.131640        -1.650088         0.681039
 H        -0.608046         0.133819         0.758030
 H        -0.596042        -0.915304        -0.761992
 H         2.826652        -1.505892         0.382759
 H         2.312673        -1.681320        -1.339912
 H         5.372543         0.994112        -1.517658
 H         5.417674         0.085476         0.007853
 H         5.136899        -0.697447        -1.515212
 H         0.742465         1.831887        -1.108868
 H         3.034515         2.304522         0.579907
