19
Iteration:  4129charge 0 multiplicity 1
 C        -0.078415        -0.652902         0.103934
 C         1.290592        -0.141525        -0.080302
 C         2.449164        -0.982075        -0.420721
 C         3.412571         0.293698        -0.794305
 C         4.885738         0.264988        -1.002343
 O         2.697964         0.843078        -1.995032
 C         1.632132         1.192800        -1.010013
 C         2.655512         1.359322         0.141344
 O         1.904936         0.695761         1.213790
 H        -0.144569        -1.454815         0.880032
 H        -0.710717         0.131454         0.612615
 H        -0.692039        -0.840964        -0.814011
 H         2.844296        -1.400211         0.485221
 H         2.480739        -1.591045        -1.303757
 H         5.322326         1.333645        -0.839365
 H         5.442949        -0.276712        -0.314473
 H         5.120573         0.008285        -2.027893
 H         0.860720         2.012778        -0.932847
 H         3.206742         2.273871         0.588594
