19
Iteration:  2760
 C        -0.090486        -0.529085         0.003803
 C         1.292924        -0.081577        -0.035715
 C         2.628705        -0.976368        -0.256557
 C         3.317584         0.248848        -0.836640
 C         4.856548         0.213742        -1.076672
 O         2.588667         0.844662        -1.967066
 C         1.686601         1.177701        -0.940516
 C         2.696473         1.342769         0.173229
 O         1.887139         0.673153         1.156674
 H        -0.396821        -0.975619         1.033792
 H        -0.866454         0.302681        -0.195018
 H        -0.257805        -1.369501        -0.675965
 H         3.033397        -1.248868         0.726917
 H         2.535214        -1.748187        -1.051730
 H         5.310904         1.194890        -1.138415
 H         5.297916        -0.412962        -0.234921
 H         5.189066        -0.198050        -2.020974
 H         0.991840         1.930921        -1.245757
 H         3.230324         2.319214         0.486707
