19
Iteration:   929
 C        -0.103900        -0.615538         0.170569
 C         1.311111        -0.016107        -0.040549
 C         2.507004        -0.922489        -0.470246
 C         3.381543         0.232121        -0.869717
 C         4.895062         0.239418        -0.969730
 O         2.681696         0.860743        -1.880953
 C         1.663306         1.225304        -1.018297
 C         2.627304         1.307752         0.193042
 O         1.912578         0.605744         1.098805
 H        -0.113023        -1.371817         0.908947
 H        -0.860470         0.085886         0.573090
 H        -0.503511        -0.921397        -0.832380
 H         3.007875        -1.503622         0.269014
 H         2.373734        -1.445483        -1.527996
 H         5.156030         1.408347        -1.102161
 H         5.205650        -0.102492        -0.053725
 H         5.238406        -0.450755        -1.798233
 H         0.866565         1.957952        -1.183422
 H         3.089894         2.304056         0.410474
