19
Iteration:  4195charge 0 multiplicity 1
 C        -0.084393        -0.792620         0.220196
 C         1.244229        -0.061889        -0.026621
 C         2.516227        -0.883484        -0.443646
 C         3.375351         0.314426        -0.798496
 C         4.873391         0.114993        -0.973050
 O         2.729465         0.959517        -2.001900
 C         1.656907         1.252229        -0.959803
 C         2.696221         1.407167         0.169965
 O         1.846935         0.655387         1.025434
 H         0.142268        -1.485299         1.129849
 H        -0.937474        -0.163318         0.541939
 H        -0.422345        -1.513175        -0.576231
 H         2.882587        -1.430488         0.412478
 H         2.377902        -1.562635        -1.307405
 H         5.201340         1.203415        -1.023324
 H         5.244223        -0.223241        -0.026950
 H         5.178089        -0.464248        -1.843473
 H         0.935374         2.032963        -1.402158
 H         3.184605         2.398109         0.537907
