19
Iteration:  4485charge 0 multiplicity 1
 C         0.058960        -0.742426         0.192682
 C         1.294818         0.012341        -0.107663
 C         2.451735        -0.874423        -0.541914
 C         3.380692         0.366146        -0.808322
 C         4.951471         0.115300        -0.900195
 O         2.605356         0.807171        -2.001716
 C         1.616896         1.333315        -0.957742
 C         2.662455         1.447158         0.156375
 O         1.865969         0.570843         1.165359
 H         0.327383        -1.700295         0.578943
 H        -0.518058        -0.096381         1.021205
 H        -0.528866        -0.927794        -0.771673
 H         2.591069        -1.578410         0.286268
 H         2.268101        -1.382379        -1.507198
 H         5.394688         0.725578        -1.774971
 H         5.336604         0.263845         0.122527
 H         5.007410        -0.918827        -1.302473
 H         0.887574         2.176386        -1.260057
 H         3.031087         2.337259         0.676928
