19
Iteration:  2848
 C        -0.071068        -0.699739         0.200981
 C         1.298710        -0.046320        -0.049005
 C         2.503277        -0.863426        -0.484628
 C         3.361510         0.282655        -0.893048
 C         4.846197         0.068315        -0.846897
 O         2.635468         0.859628        -2.048755
 C         1.672277         1.228615        -0.938073
 C         2.640256         1.490202         0.111053
 O         1.935179         0.659071         1.103450
 H         0.052422        -1.721587         0.803461
 H        -0.660671        -0.054439         0.877618
 H        -0.654697        -0.810099        -0.717852
 H         3.040879        -1.295342         0.362627
 H         2.549578        -1.669336        -1.178049
 H         5.354485         1.011861        -1.204151
 H         5.188121         0.102161         0.236799
 H         5.139783        -0.865166        -1.323097
 H         0.896219         1.874249        -1.217860
 H         3.290797         2.442316         0.359052
