19
Iteration:  4818charge 0 multiplicity 1
 C         0.018145        -0.694757         0.205562
 C         1.288380        -0.017963        -0.106499
 C         2.528895        -0.895503        -0.569467
 C         3.361219         0.316124        -0.783624
 C         4.856624         0.106492        -0.959035
 O         2.613065         0.933962        -1.926552
 C         1.680076         1.302167        -0.970716
 C         2.687776         1.270180         0.242733
 O         1.827861         0.686014         1.080676
 H        -0.054723        -1.310688         1.128652
 H        -0.850899        -0.039101         0.051284
 H        -0.233461        -1.426107        -0.544551
 H         3.019138        -1.375334         0.334019
 H         2.519335        -1.606978        -1.408914
 H         5.478054         0.962844        -0.595126
 H         5.260532        -0.823981        -0.459693
 H         5.161934        -0.014272        -2.011784
 H         0.722340         1.743317        -1.384141
 H         3.208556         2.173894         0.804207
