19
Iteration:  4496
 C        -0.019525        -0.758900         0.195616
 C         1.310633        -0.063929        -0.045663
 C         2.472358        -0.912966        -0.631808
 C         3.411836         0.364680        -0.804387
 C         4.892356         0.130214        -0.932646
 O         2.583675         0.851851        -1.901946
 C         1.655331         1.269129        -0.941843
 C         2.672251         1.407050         0.175216
 O         1.872728         0.728808         1.102153
 H         0.219086        -1.719578         0.589673
 H        -0.883417        -0.353840         0.942891
 H        -0.605498        -0.895695        -0.785145
 H         2.788027        -1.627976         0.147274
 H         2.556351        -1.455360        -1.582969
 H         5.549238         0.911053        -1.530937
 H         5.385636         0.080219         0.063718
 H         4.965307        -0.940913        -1.251640
 H         0.939769         2.117340        -1.281071
 H         3.378955         2.214017         0.400574
