19
Iteration:  2477
 C        -0.021562        -0.547277         0.302446
 C         1.328585        -0.096273        -0.115975
 C         2.466295        -0.955762        -0.580524
 C         3.337674         0.301113        -0.800892
 C         4.835580         0.215592        -0.858052
 O         2.666338         0.933730        -1.997386
 C         1.703344         1.240557        -1.022923
 C         2.684462         1.285277         0.123694
 O         1.848862         0.560769         1.092322
 H         0.086472        -1.460426         0.901792
 H        -0.341526         0.107550         1.150872
 H        -0.721819        -0.705092        -0.468835
 H         2.737438        -1.506336         0.275180
 H         2.277214        -1.653009        -1.409347
 H         5.297071         1.164893        -1.038614
 H         5.215584        -0.146041         0.171825
 H         5.221262        -0.328950        -1.759676
 H         1.016715         2.035317        -1.359450
 H         3.296982         2.094302         0.522950
