19
Iteration:  3165
 C        -0.041825        -0.667182         0.306077
 C         1.356131        -0.091954        -0.086171
 C         2.460284        -0.913065        -0.583093
 C         3.373952         0.252316        -0.807889
 C         4.848103         0.116171        -0.793822
 O         2.641607         0.940567        -1.978191
 C         1.632875         1.256770        -1.065288
 C         2.632646         1.390237         0.097465
 O         1.929535         0.655608         1.114710
 H        -0.051608        -1.505987         1.081691
 H        -0.539708         0.205034         0.551613
 H        -0.546834        -1.107907        -0.575203
 H         2.895946        -1.757886         0.039911
 H         2.210122        -1.480247        -1.453062
 H         5.396500         1.106546        -0.756409
 H         5.335269        -0.534836         0.021404
 H         5.174624        -0.029444        -1.836224
 H         0.878224         1.950169        -1.374161
 H         3.305347         2.333653         0.394644
