19
Iteration:  2550
 C        -0.024081        -0.680715         0.032178
 C         1.301565        -0.061142        -0.043985
 C         2.554824        -0.836988        -0.384879
 C         3.406516         0.293759        -0.795220
 C         4.866616         0.113088        -1.140423
 O         2.585092         0.852839        -1.891837
 C         1.706702         1.296238        -0.918099
 C         2.673558         1.358833         0.244449
 O         1.832784         0.649187         1.158840
 H        -0.404284        -0.945621         1.033259
 H        -0.692986         0.214521        -0.289308
 H        -0.150968        -1.456122        -0.796935
 H         2.992308        -1.303806         0.482214
 H         2.381169        -1.817858        -1.066927
 H         5.394217         0.890151        -1.673408
 H         5.334938        -0.349693        -0.318999
 H         4.820652        -0.686165        -1.981021
 H         1.015369         2.230649        -1.136315
 H         3.136685         2.231870         0.643369
