19
Iteration:   440charge 0 multiplicity 1
 C        -0.044952        -0.634900         0.195942
 C         1.299546        -0.095983        -0.045402
 C         2.587018        -0.949586        -0.599231
 C         3.392109         0.303398        -0.712837
 C         4.844149         0.229471        -0.873704
 O         2.602835         0.937847        -1.951462
 C         1.641963         1.263298        -1.033128
 C         2.700550         1.306268         0.156210
 O         1.841048         0.581841         1.096048
 H         0.033834        -1.507420         0.855050
 H        -0.462204         0.005327         0.921274
 H        -0.463714        -0.889317        -0.861527
 H         2.853323        -1.521948         0.241723
 H         2.289732        -1.480586        -1.583027
 H         5.155083         1.172573        -1.421948
 H         5.436619         0.233781         0.045737
 H         5.081640        -0.698805        -1.409815
 H         0.875104         1.953099        -1.412729
 H         3.393200         2.189022         0.346301
