19
Iteration:  2191
 C        -0.069510        -0.662722         0.092306
 C         1.299373        -0.084944        -0.008572
 C         2.432906        -0.933678        -0.506840
 C         3.362036         0.339566        -0.795526
 C         4.880434         0.145023        -1.084442
 O         2.691696         0.987914        -1.951520
 C         1.644211         1.256055        -0.896963
 C         2.761771         1.342270         0.185195
 O         1.885771         0.562277         1.194926
 H        -0.217035        -1.194497         1.037339
 H        -0.796757         0.178084         0.090420
 H        -0.260046        -1.369153        -0.761353
 H         2.840225        -1.506091         0.302350
 H         2.156756        -1.574650        -1.439241
 H         5.347536         1.132141        -0.985427
 H         5.373079        -0.311056        -0.291302
 H         4.975668        -0.330325        -2.050233
 H         0.726703         1.894104        -1.072169
 H         3.226830         2.296035         0.545721
