19
Iteration:  4828charge 0 multiplicity 1
 C        -0.111939        -0.692489         0.157269
 C         1.329523        -0.053317        -0.055993
 C         2.599980        -0.873512        -0.512569
 C         3.441745         0.310521        -0.881749
 C         4.856336         0.130055        -0.965224
 O         2.614196         0.894784        -1.908726
 C         1.657672         1.216902        -0.957035
 C         2.707116         1.359120         0.233568
 O         1.804167         0.657561         1.089886
 H        -0.105004        -1.244426         1.138324
 H        -0.849134         0.055833         0.383792
 H        -0.377637        -1.251920        -0.705900
 H         2.829365        -1.719077         0.176341
 H         2.267654        -1.217650        -1.493070
 H         5.272807         1.101024        -0.643018
 H         5.357390        -0.690966        -0.369737
 H         5.220224         0.014889        -2.028207
 H         0.947631         1.979072        -1.254154
 H         3.318831         2.204725         0.765277
