19
Iteration:  4088
 C        -0.136403        -0.651923         0.008382
 C         1.327630        -0.059952        -0.096976
 C         2.564975        -0.896970        -0.354512
 C         3.415897         0.322132        -0.725030
 C         4.852639         0.241346        -1.130399
 O         2.637231         0.773361        -2.004519
 C         1.689505         1.240667        -0.860674
 C         2.660994         1.349083         0.251827
 O         1.853818         0.631903         1.214781
 H        -0.163179        -1.337066         0.922379
 H        -0.773960         0.178489         0.185786
 H        -0.374443        -1.030351        -0.988304
 H         2.718792        -1.503003         0.524694
 H         2.456632        -1.441485        -1.314959
 H         5.207034         1.139103        -1.733126
 H         5.637299         0.206677        -0.312898
 H         5.071946        -0.620811        -1.788135
 H         0.981481         1.922567        -1.375831
 H         3.220267         2.299175         0.502095
