19
Iteration:   957
 C        -0.088911        -0.617236         0.250626
 C         1.346699        -0.088902        -0.099149
 C         2.512486        -0.939210        -0.570481
 C         3.401012         0.295994        -0.763945
 C         4.929529         0.248389        -0.848015
 O         2.599560         0.871521        -2.086145
 C         1.672922         1.257234        -1.024953
 C         2.628264         1.319205         0.211494
 O         1.882182         0.601080         1.107173
 H        -0.183807        -1.529551         0.960662
 H        -0.509715         0.217538         0.943196
 H        -0.587246        -0.606432        -0.676391
 H         2.917107        -1.715849         0.168253
 H         2.402399        -1.390219        -1.504239
 H         5.294672         1.034339        -1.368112
 H         5.465701         0.115705         0.204797
 H         4.965813        -0.664992        -1.395296
 H         0.787227         1.895081        -0.989412
 H         3.258555         2.209930         0.531796
