19
Iteration:  3471
 C        -0.054517        -0.641764         0.208026
 C         1.333224        -0.149421        -0.107883
 C         2.455505        -0.903297        -0.596732
 C         3.389181         0.278374        -0.791664
 C         4.873388         0.194552        -0.912930
 O         2.674782         1.012820        -1.935761
 C         1.685807         1.193029        -0.915760
 C         2.678497         1.273918         0.165810
 O         1.883374         0.636840         1.116714
 H        -0.232996        -1.359347         0.964281
 H        -0.565382         0.200713         0.568894
 H        -0.541989        -0.975685        -0.727212
 H         2.707639        -1.768481        -0.042126
 H         2.124397        -1.254587        -1.616550
 H         5.111795         1.094514        -1.516434
 H         5.381043         0.317315        -0.018602
 H         5.025397        -0.727810        -1.407176
 H         0.785389         1.828973        -1.084863
 H         3.290002         2.141130         0.488080
