19
Iteration:   320
 C        -0.001092        -0.638047         0.185282
 C         1.302543        -0.094848        -0.123628
 C         2.592401        -0.968866        -0.489124
 C         3.364571         0.242028        -0.799221
 C         4.826229         0.292079        -0.928948
 O         2.672333         0.848279        -1.946239
 C         1.607497         1.289929        -1.036917
 C         2.621518         1.368106         0.206151
 O         1.882405         0.643082         1.112772
 H         0.088245        -1.358859         1.025646
 H        -0.704456         0.158916         0.511836
 H        -0.395576        -1.193586        -0.712318
 H         2.719630        -1.641713         0.379944
 H         2.324333        -1.581756        -1.407382
 H         5.367787         1.118673        -0.410243
 H         5.218785        -0.700508        -0.553361
 H         5.052397         0.232050        -1.997942
 H         0.748193         1.958443        -1.355548
 H         3.285257         2.098480         0.776868
