19
Iteration:   987charge 0 multiplicity 1
 C        -0.088437        -0.692925         0.211925
 C         1.276802        -0.030301        -0.116100
 C         2.433046        -0.960239        -0.490206
 C         3.398546         0.270638        -0.830734
 C         4.885493         0.207682        -0.916424
 O         2.698445         0.950627        -1.954761
 C         1.612111         1.228783        -0.938054
 C         2.669139         1.368446         0.119717
 O         1.933632         0.641661         1.089928
 H         0.079836        -1.680591         0.685982
 H        -0.525506         0.075210         0.761797
 H        -0.530478        -0.854086        -0.781247
 H         2.817057        -1.536445         0.394641
 H         2.327047        -1.741416        -1.210330
 H         5.457599         0.947891        -1.478780
 H         5.336470         0.126718         0.178163
 H         5.139364        -0.739049        -1.435352
 H         0.691514         1.820722        -1.087071
 H         3.197011         2.240439         0.411416
