19
Iteration:  4346charge 0 multiplicity 1
 C        -0.022781        -0.767891         0.229971
 C         1.313614        -0.084277        -0.096111
 C         2.567058        -0.906872        -0.521953
 C         3.380930         0.300154        -0.685204
 C         4.783590         0.098976        -0.962698
 O         2.673256         0.889500        -1.925894
 C         1.677992         1.273461        -1.043258
 C         2.596707         1.477268         0.141003
 O         1.893099         0.702912         1.072808
 H         0.095821        -1.526010         0.935898
 H        -0.832312        -0.129851         0.653463
 H        -0.516291        -1.124845        -0.696246
 H         2.977771        -1.468301         0.370642
 H         2.665257        -1.588481        -1.446196
 H         5.423108         1.059947        -0.704374
 H         5.149543        -0.765709        -0.452744
 H         4.764433         0.053376        -2.066890
 H         0.817288         1.931197        -1.484400
 H         3.172883         2.231181         0.885928
