19
Iteration:   549
 C        -0.037406        -0.699109         0.037574
 C         1.281118        -0.102063         0.014552
 C         2.572685        -0.931572        -0.390113
 C         3.408653         0.309264        -0.846671
 C         4.890020         0.164634        -1.108503
 O         2.633559         0.952500        -1.894165
 C         1.731951         1.292203        -0.957276
 C         2.626624         1.411396         0.255608
 O         1.764924         0.611338         1.178564
 H        -0.226418        -1.418675         0.851583
 H        -0.793116         0.034972         0.058731
 H        -0.207764        -1.177542        -1.027247
 H         3.011293        -1.493669         0.375095
 H         2.600511        -1.746978        -1.232837
 H         5.556778         0.975620        -1.518527
 H         5.281244        -0.451877        -0.353027
 H         4.868411        -0.469229        -2.037889
 H         0.919306         1.977418        -1.240433
 H         3.268310         2.253352         0.611495
