19
Iteration:  1104charge 0 multiplicity 1
 C        -0.050962        -0.648053         0.276758
 C         1.325412        -0.049806        -0.035243
 C         2.467467        -0.929513        -0.491134
 C         3.380907         0.281980        -0.755468
 C         4.910297         0.224654        -0.949065
 O         2.623319         0.853893        -1.987444
 C         1.703328         1.244532        -0.987677
 C         2.635216         1.335047         0.124999
 O         1.868279         0.655250         1.072510
 H        -0.144887        -1.447365         0.990666
 H        -0.795286         0.103117         0.398202
 H        -0.260910        -1.168378        -0.705523
 H         2.971160        -1.689742         0.084454
 H         2.260615        -1.379393        -1.493647
 H         5.414927         1.231089        -0.974153
 H         5.213007        -0.254243        -0.143422
 H         5.126688        -0.325880        -1.882164
 H         0.988787         2.006180        -1.317488
 H         3.241618         2.108314         0.573032
