19
Iteration:  4980charge 0 multiplicity 1
 C        -0.161884        -0.728093         0.202817
 C         1.286827        -0.073601        -0.091127
 C         2.503227        -0.886580        -0.567436
 C         3.447804         0.296736        -0.796382
 C         4.879252         0.112652        -0.997359
 O         2.686153         1.015856        -1.940908
 C         1.655516         1.248081        -0.947907
 C         2.708045         1.354066         0.235209
 O         1.820622         0.620881         1.162748
 H         0.013507        -1.215310         1.229145
 H        -0.809521         0.139037         0.065240
 H        -0.291267        -1.469079        -0.578828
 H         2.900141        -1.575073         0.227900
 H         2.371902        -1.480385        -1.476809
 H         5.289118         1.142395        -1.280910
 H         5.474943        -0.335524        -0.158208
 H         5.070615        -0.523889        -1.889693
 H         0.949018         1.863374        -1.573267
 H         3.436461         2.228397         0.526396
