19
Iteration:   950charge 0 multiplicity 1
 C        -0.051128        -0.593458         0.248877
 C         1.353376        -0.096882        -0.147927
 C         2.484894        -0.971845        -0.577967
 C         3.414231         0.321422        -0.730260
 C         4.957240         0.260502        -0.853985
 O         2.607770         0.850839        -2.052784
 C         1.629193         1.206121        -0.942868
 C         2.649873         1.379429         0.188906
 O         1.875781         0.599290         1.110154
 H        -0.193665        -1.483074         0.823709
 H        -0.642996         0.203616         0.781533
 H        -0.729571        -0.725487        -0.649129
 H         2.594785        -1.647871         0.253000
 H         2.206685        -1.431468        -1.637301
 H         5.433191         1.210997        -1.416482
 H         5.449239         0.035010         0.012043
 H         5.065316        -0.669668        -1.519213
 H         0.760774         1.883193        -1.135671
 H         3.413073         2.191727         0.437967
