19
Iteration:  3938charge 0 multiplicity 1
 C        -0.133606        -0.633440         0.007107
 C         1.335453        -0.125764        -0.033087
 C         2.556430        -0.916163        -0.415877
 C         3.357952         0.291266        -0.813274
 C         4.792675         0.219996        -1.085263
 O         2.657838         0.842404        -1.852485
 C         1.665712         1.225781        -0.951953
 C         2.692348         1.343772         0.137554
 O         1.925725         0.688137         1.233990
 H        -0.285008        -1.503537         0.635192
 H        -0.763725         0.215350         0.142704
 H        -0.203214        -1.107574        -1.002546
 H         2.982726        -1.245927         0.571155
 H         2.362584        -1.472295        -1.408389
 H         5.292661         1.074398        -0.768260
 H         5.442164        -0.555283        -0.588593
 H         4.936161        -0.105388        -2.070394
 H         0.829974         1.962562        -1.270195
 H         3.209236         2.217967         0.611014
