19
Iteration:  1771
 C        -0.034704        -0.708374         0.183897
 C         1.309528        -0.030398         0.031883
 C         2.479108        -0.834364        -0.519300
 C         3.385512         0.401840        -0.818979
 C         4.893164         0.148595        -0.934751
 O         2.675624         0.852248        -2.008670
 C         1.625573         1.247488        -0.992359
 C         2.636633         1.371960         0.136397
 O         1.897342         0.592288         1.154208
 H         0.017995        -1.600561         0.878467
 H        -0.883408        -0.051808         0.582236
 H        -0.364220        -1.004694        -0.762691
 H         2.837459        -1.550094         0.280381
 H         2.223848        -1.414463        -1.401958
 H         5.529672         0.850800        -1.420773
 H         5.401250        -0.067641         0.074313
 H         4.925427        -0.835294        -1.524846
 H         0.807384         1.928725        -1.468264
 H         3.144502         2.310971         0.481698
