19
Iteration:  4288charge 0 multiplicity 1
 C        -0.068309        -0.642603         0.076870
 C         1.325011        -0.089890        -0.026894
 C         2.536308        -0.958409        -0.483022
 C         3.425215         0.351101        -0.759804
 C         4.845766         0.274986        -1.034471
 O         2.617576         0.772564        -1.884858
 C         1.666776         1.230582        -0.926692
 C         2.695366         1.367119         0.114561
 O         1.844533         0.659955         1.151810
 H        -0.108250        -1.594928         0.627829
 H        -0.598294         0.219003         0.591413
 H        -0.450828        -0.860902        -0.925527
 H         2.915810        -1.748814         0.219970
 H         2.405204        -1.383067        -1.485430
 H         5.239931         1.175366        -1.522392
 H         5.302707         0.174465         0.017326
 H         5.063644        -0.709421        -1.508512
 H         0.958027         1.978219        -1.232181
 H         3.106825         2.267740         0.513116
