19
Iteration:  4784
 C        -0.106595        -0.793265         0.183129
 C         1.239140        -0.054929        -0.036488
 C         2.447182        -0.846952        -0.506667
 C         3.405258         0.316959        -0.774172
 C         4.905411         0.086425        -1.045679
 O         2.729733         0.974546        -1.912495
 C         1.665578         1.266410        -0.987599
 C         2.681266         1.357001         0.225916
 O         1.882547         0.671491         1.091161
 H        -0.223513        -1.189037         1.236165
 H        -0.918064        -0.147853         0.017612
 H        -0.037096        -1.539928        -0.573429
 H         2.926529        -1.481436         0.280729
 H         2.380753        -1.421710        -1.425962
 H         5.413991         0.986291        -0.734999
 H         5.219946        -0.737268        -0.356802
 H         5.026026        -0.123036        -2.142496
 H         0.849787         1.806758        -1.401796
 H         3.063567         2.373584         0.631495
