19
Iteration:  3945
 C        -0.113344        -0.617398        -0.019284
 C         1.316351        -0.098217        -0.010937
 C         2.558923        -0.911376        -0.414683
 C         3.328478         0.304528        -0.799480
 C         4.835149         0.220698        -1.040884
 O         2.633625         0.822430        -1.934854
 C         1.650529         1.231516        -0.987673
 C         2.669568         1.376994         0.241305
 O         1.964649         0.627613         1.197301
 H        -0.067412        -1.347280         0.861630
 H        -0.763959         0.214952         0.286440
 H        -0.376724        -1.012557        -0.992688
 H         2.901180        -1.414366         0.494723
 H         2.414215        -1.695992        -1.177392
 H         5.393053         1.211408        -0.761958
 H         5.238846        -0.623212        -0.471818
 H         4.921595         0.057038        -2.173479
 H         0.929181         1.913872        -1.311168
 H         3.233999         2.247137         0.519694
