19
Iteration:  2644charge 0 multiplicity 1
 C        -0.070740        -0.655215         0.242303
 C         1.343880        -0.065127         0.071127
 C         2.471529        -0.972389        -0.556355
 C         3.390977         0.258131        -0.826498
 C         4.829361         0.154596        -0.763105
 O         2.635800         0.930566        -2.059558
 C         1.639808         1.253834        -1.047713
 C         2.679120         1.396530         0.081583
 O         1.942292         0.673657         1.100072
 H         0.010143        -1.693847         0.647749
 H        -0.474936        -0.076067         1.008227
 H        -0.670147        -0.548606        -0.656108
 H         2.887186        -1.825579         0.113869
 H         2.181491        -1.385289        -1.493623
 H         5.492259         1.033171        -1.086945
 H         5.111830        -0.380340         0.191364
 H         5.073538        -0.556181        -1.568205
 H         0.771248         1.819667        -1.388797
 H         3.305546         2.341884         0.253096
