19
Iteration:  2169
 C        -0.083972        -0.572149         0.277865
 C         1.292048        -0.073455        -0.100616
 C         2.569268        -0.977139        -0.633059
 C         3.357359         0.234956        -0.866716
 C         4.838506         0.246895        -0.945070
 O         2.616356         0.971140        -1.923886
 C         1.714836         1.299162        -0.978531
 C         2.649898         1.264850         0.233619
 O         1.907820         0.518057         1.083320
 H        -0.095614        -1.009188         1.265784
 H        -0.659190         0.357838         0.431728
 H        -0.585091        -1.221958        -0.507639
 H         2.960273        -1.526970         0.225729
 H         2.333139        -1.637500        -1.582788
 H         5.284587         1.212052        -0.634724
 H         5.121879        -0.239852        -0.057993
 H         5.264164        -0.232501        -1.812114
 H         1.022534         2.117960        -1.336028
 H         3.253734         2.106081         0.689271
