19
Iteration:  2350charge 0 multiplicity 1
 C        -0.016345        -0.619786         0.177564
 C         1.311060        -0.083264        -0.126577
 C         2.435110        -0.946358        -0.614283
 C         3.385497         0.283456        -0.776640
 C         4.862719         0.107880        -0.975719
 O         2.637123         0.969077        -1.917173
 C         1.642275         1.253044        -0.920158
 C         2.639793         1.344318         0.198337
 O         1.914403         0.638693         1.117634
 H         0.236352        -1.070848         1.124498
 H        -0.684803         0.168128         0.196301
 H        -0.340904        -1.522603        -0.347859
 H         2.805212        -1.760047         0.190836
 H         2.368156        -1.295932        -1.601888
 H         5.384962         1.088391        -0.957337
 H         5.416466        -0.320685        -0.091696
 H         5.155189        -0.519908        -1.762288
 H         0.960740         2.014141        -1.108541
 H         3.092397         2.262100         0.685463
