19
Iteration:   442
 C        -0.046794        -0.636594         0.208787
 C         1.296604        -0.092985        -0.029083
 C         2.590591        -0.929683        -0.597885
 C         3.397666         0.296736        -0.711673
 C         4.843587         0.236529        -0.862589
 O         2.596716         0.941816        -1.955165
 C         1.663896         1.255657        -1.051441
 C         2.691494         1.321396         0.167040
 O         1.850872         0.558122         1.082270
 H         0.013442        -1.519808         0.852107
 H        -0.409063         0.064574         0.831233
 H        -0.541362        -0.867674        -0.840656
 H         2.790716        -1.512231         0.168790
 H         2.238898        -1.528982        -1.538233
 H         5.195506         1.183539        -1.354706
 H         5.407547         0.209781        -0.009303
 H         5.046665        -0.703509        -1.409563
 H         0.838533         1.903097        -1.413570
 H         3.354370         2.193795         0.291693
