19
Iteration:   429charge 0 multiplicity 1
 C        -0.027267        -0.667430         0.191630
 C         1.316827        -0.077372        -0.118219
 C         2.513208        -0.962113        -0.534850
 C         3.376246         0.287996        -0.808784
 C         4.879876         0.223044        -0.930804
 O         2.659418         0.905237        -1.946905
 C         1.624416         1.259729        -0.916262
 C         2.666551         1.322184         0.160614
 O         1.842324         0.660559         1.128598
 H         0.118969        -1.653769         0.637648
 H        -0.773722        -0.026617         0.613388
 H        -0.611789        -0.920519        -0.765666
 H         2.927636        -1.672030         0.149811
 H         2.567091        -1.464250        -1.540357
 H         5.208531         1.057088        -1.597444
 H         5.313199         0.325338         0.075603
 H         5.259276        -0.676138        -1.430413
 H         0.905403         2.039472        -1.177961
 H         3.199966         2.143386         0.697964
