19
Iteration:  3344charge 0 multiplicity 1
 C        -0.052971        -0.547751         0.256741
 C         1.302523        -0.108521        -0.104965
 C         2.506753        -1.012810        -0.534805
 C         3.377823         0.200133        -0.812283
 C         4.856692         0.273206        -0.905403
 O         2.692976         0.972118        -1.999114
 C         1.705146         1.156129        -0.999580
 C         2.627470         1.392295         0.191540
 O         1.864080         0.570581         1.122658
 H        -0.026337        -1.356176         0.919172
 H        -0.696436         0.298281         0.667136
 H        -0.676445        -1.007468        -0.489354
 H         2.955019        -1.569724         0.233723
 H         2.142171        -1.487931        -1.451085
 H         5.287577         1.259289        -0.610062
 H         5.322723        -0.545871        -0.358342
 H         5.118908         0.289614        -1.981088
 H         0.846754         1.804882        -1.333895
 H         3.277451         2.231183         0.418385
