19
Iteration:  1947charge 0 multiplicity 1
 C        -0.094393        -0.660721         0.236043
 C         1.319002        -0.071919        -0.067921
 C         2.482552        -0.890046        -0.596869
 C         3.446497         0.340923        -0.806842
 C         4.991491         0.132077        -0.914275
 O         2.559937         0.951805        -1.954488
 C         1.623622         1.261834        -0.872992
 C         2.769950         1.405784         0.074598
 O         1.814080         0.523520         1.082025
 H         0.015030        -1.555736         0.847378
 H        -0.630204         0.160268         0.713824
 H        -0.729928        -0.990187        -0.543156
 H         2.688703        -1.551524         0.390264
 H         2.262240        -1.409805        -1.471176
 H         5.500019         0.907333        -1.433796
 H         5.442523        -0.090748         0.083675
 H         5.219617        -0.721668        -1.470086
 H         0.873585         1.990159        -1.193601
 H         3.249905         2.278270         0.498584
