19
Iteration:  1926
 C        -0.025199        -0.674184         0.115031
 C         1.302953        -0.066939        -0.076825
 C         2.514900        -0.906741        -0.518656
 C         3.384229         0.261974        -0.811112
 C         4.833746         0.102165        -1.095273
 O         2.645966         0.936548        -1.911335
 C         1.681565         1.268758        -0.956271
 C         2.611177         1.331589         0.265805
 O         1.891257         0.707967         1.215354
 H         0.114939        -1.672261         0.420358
 H        -0.744731        -0.016914         0.500199
 H        -0.309680        -0.890492        -0.909759
 H         2.963054        -1.494437         0.392876
 H         2.292751        -1.431273        -1.380504
 H         5.342819         0.922336        -1.641246
 H         5.308200         0.062279        -0.066006
 H         5.150334        -0.797816        -1.519762
 H         0.851966         1.855865        -1.313337
 H         3.135651         2.192324         0.675424
