19
Iteration:  2281charge 0 multiplicity 1
 C        -0.071467        -0.573640         0.155467
 C         1.314925        -0.066357        -0.052021
 C         2.481033        -0.889445        -0.526070
 C         3.396870         0.351246        -0.812479
 C         4.869462         0.195477        -1.034717
 O         2.646505         0.831059        -1.950946
 C         1.671158         1.244172        -0.926677
 C         2.686104         1.285546         0.268999
 O         1.893887         0.588910         1.143196
 H        -0.114269        -1.646669         0.448641
 H        -0.709946         0.123106         0.763937
 H        -0.572733        -0.717063        -0.772920
 H         2.971934        -1.631469         0.057251
 H         2.226633        -1.276213        -1.608027
 H         5.226995         1.151737        -1.202225
 H         5.327798         0.014918        -0.074171
 H         5.118664        -0.541030        -1.816963
 H         0.834622         1.930832        -1.264990
 H         3.212504         2.140565         0.616772
