19
Iteration:  2238
 C         0.043136        -0.662434        -0.059155
 C         1.338238        -0.056198        -0.030007
 C         2.548964        -0.831807        -0.331878
 C         3.388282         0.258191        -0.846571
 C         4.776052         0.104728        -1.244498
 O         2.621348         0.975847        -1.858069
 C         1.728964         1.217420        -0.886502
 C         2.711911         1.333983         0.292966
 O         1.780200         0.633862         1.195863
 H        -0.039500        -1.602221         0.523448
 H        -0.717255         0.054921         0.322699
 H        -0.161934        -0.922574        -1.048165
 H         2.744117        -1.306397         0.628011
 H         2.342971        -1.687014        -1.138703
 H         5.226577         0.957336        -1.622725
 H         5.323595        -0.237321        -0.365783
 H         4.596645        -0.690649        -1.980774
 H         0.946033         1.999844        -1.086590
 H         3.231052         2.152972         0.728433
