19
Iteration:   704
 C        -0.067595        -0.731801         0.013837
 C         1.232454        -0.026455        -0.072031
 C         2.538432        -0.841406        -0.387967
 C         3.421461         0.316089        -0.794200
 C         4.882172         0.158553        -1.156961
 O         2.661737         0.843204        -1.916110
 C         1.703404         1.301985        -0.883567
 C         2.701518         1.337497         0.283007
 O         1.821397         0.682788         1.174621
 H        -0.101973        -1.589803         0.741642
 H        -0.930690        -0.158764        -0.142248
 H         0.016460        -1.453990        -0.860064
 H         2.627746        -1.281940         0.605154
 H         2.395810        -1.662861        -1.196764
 H         5.381352         1.113350        -1.191129
 H         5.451925        -0.622041        -0.581837
 H         4.694775        -0.294773        -2.134376
 H         0.880452         2.049992        -1.008245
 H         3.255411         2.154301         0.702105
