19
Iteration:   132
 C        -0.010321        -0.685715         0.255324
 C         1.332593        -0.127706        -0.119034
 C         2.461029        -1.001729        -0.598119
 C         3.390307         0.289528        -0.790591
 C         4.852773         0.280828        -0.920772
 O         2.677834         0.945138        -1.908685
 C         1.666870         1.262069        -1.035060
 C         2.671387         1.382084         0.194852
 O         1.835525         0.597848         1.097964
 H         0.038537        -1.573538         0.926080
 H        -0.596347         0.203165         0.704685
 H        -0.395820        -0.965050        -0.725976
 H         2.653458        -1.744433         0.281675
 H         2.277412        -1.530308        -1.496122
 H         5.204797         0.057676        -1.927481
 H         5.451965         1.207866        -0.495913
 H         5.004987        -0.579617        -0.283922
 H         0.964350         1.996660        -1.375372
 H         3.150673         2.282900         0.610442
