19
Iteration:  2028
 C        -0.124671        -0.638622         0.083773
 C         1.308030        -0.034266        -0.097698
 C         2.540811        -0.941176        -0.393237
 C         3.387645         0.304799        -0.828905
 C         4.905372         0.172908        -1.200455
 O         2.601540         0.905806        -1.888644
 C         1.742364         1.277776        -0.887834
 C         2.657947         1.351973         0.275845
 O         1.842598         0.568954         1.162612
 H        -0.224194        -1.237824         0.954512
 H        -0.835719         0.145326         0.233647
 H        -0.252332        -1.192888        -0.875256
 H         2.857320        -1.389140         0.513554
 H         2.495027        -1.699281        -1.275064
 H         5.542803         1.111260        -1.037388
 H         5.419519        -0.396078        -0.451038
 H         5.050697        -0.318764        -2.207795
 H         0.997533         2.021488        -1.226886
 H         3.172263         2.273683         0.663905
