19
Iteration:  3560charge 0 multiplicity 1
 C        -0.076155        -0.688162         0.015213
 C         1.264765        -0.091229        -0.120064
 C         2.464494        -0.906799        -0.382881
 C         3.451148         0.383320        -0.722941
 C         4.882425         0.140204        -1.194693
 O         2.692051         0.919974        -1.861404
 C         1.682726         1.245745        -0.923667
 C         2.671368         1.381377         0.253722
 O         1.838454         0.626587         1.211619
 H        -0.084937        -1.448522         0.714144
 H        -0.828676        -0.022350         0.402752
 H        -0.282361        -1.203370        -0.925362
 H         2.583280        -1.550242         0.476823
 H         2.348350        -1.409408        -1.351804
 H         5.656497         0.997639        -1.202926
 H         5.421422        -0.647058        -0.748450
 H         4.853844        -0.271415        -2.215233
 H         0.784093         1.847228        -1.313495
 H         3.314779         2.230348         0.564784
