19
Iteration:  3418charge 0 multiplicity 1
 C        -0.020569        -0.707426        -0.048041
 C         1.300245        -0.004448        -0.009978
 C         2.579132        -0.934492        -0.357134
 C         3.420047         0.291097        -0.740503
 C         4.803416         0.085827        -1.170182
 O         2.649499         0.976866        -1.884165
 C         1.673014         1.266691        -0.895485
 C         2.717655         1.340564         0.206205
 O         1.807187         0.665005         1.198786
 H        -0.070523        -1.586055         0.569464
 H        -0.951235        -0.124132         0.210794
 H        -0.178508        -1.152402        -1.088045
 H         2.857136        -1.405283         0.553556
 H         2.478160        -1.641418        -1.216004
 H         5.226087         1.063917        -1.588229
 H         5.390532        -0.423150        -0.497706
 H         4.647586        -0.490840        -2.047651
 H         0.797169         1.969899        -1.161743
 H         3.166687         2.308507         0.514541
