19
Iteration:  3390
 C        -0.056695        -0.650087        -0.080222
 C         1.348357        -0.054758         0.019430
 C         2.541045        -0.905034        -0.381005
 C         3.515374         0.281270        -0.798861
 C         4.868306         0.130599        -1.193587
 O         2.564756         0.830234        -1.908909
 C         1.661002         1.220463        -0.901106
 C         2.672030         1.391437         0.299707
 O         1.836933         0.708806         1.213944
 H        -0.253987        -1.540005         0.566629
 H        -0.809339         0.100701         0.198283
 H        -0.422787        -1.039405        -0.988625
 H         2.817746        -1.651743         0.421074
 H         2.405241        -1.307099        -1.378726
 H         5.223685         1.110159        -0.970656
 H         5.434773        -0.650004        -0.495278
 H         5.158362         0.115027        -2.292884
 H         0.778330         1.767136        -1.125241
 H         2.992697         2.340028         0.711155
