19
Iteration:  4956
 C        -0.016711        -0.738617         0.166840
 C         1.294168        -0.035905        -0.099911
 C         2.447623        -0.899212        -0.535767
 C         3.420094         0.325568        -0.842130
 C         4.975219         0.060865        -1.018611
 O         2.644114         0.989455        -1.924385
 C         1.651404         1.272728        -0.851909
 C         2.624399         1.425928         0.242048
 O         1.788170         0.591195         1.066486
 H         0.221318        -1.394405         1.079403
 H        -0.703987         0.101281         0.247295
 H        -0.222591        -1.361749        -0.727323
 H         2.908572        -1.500446         0.271644
 H         2.320222        -1.547485        -1.392853
 H         5.548192         0.733250        -1.611254
 H         5.361295        -0.001295         0.026071
 H         5.066627        -0.978465        -1.426714
 H         1.089850         2.227264        -0.917128
 H         3.075421         2.336557         0.536532
