19
Iteration:  1102
 C        -0.030396        -0.635391         0.266288
 C         1.320604        -0.041988        -0.022688
 C         2.480076        -0.952855        -0.497363
 C         3.383756         0.292396        -0.743446
 C         4.924815         0.216080        -0.949662
 O         2.610094         0.852282        -1.987405
 C         1.691231         1.237937        -0.995569
 C         2.630153         1.342942         0.120090
 O         1.855794         0.650707         1.071094
 H        -0.163059        -1.377066         0.984645
 H        -0.855587         0.110514         0.399060
 H        -0.201733        -1.163706        -0.698879
 H         2.932406        -1.648256         0.083387
 H         2.234314        -1.390179        -1.503881
 H         5.407598         1.258292        -0.986539
 H         5.384522        -0.310924        -0.131824
 H         5.066296        -0.295263        -1.917747
 H         1.014493         1.998395        -1.245989
 H         3.264080         2.096255         0.635355
