19
Iteration:   963charge 0 multiplicity 1
 C        -0.092558        -0.603313         0.264294
 C         1.290290        -0.106109        -0.031291
 C         2.557499        -0.912298        -0.542504
 C         3.399739         0.294026        -0.796239
 C         4.868293         0.199104        -0.838811
 O         2.596655         0.901856        -2.055100
 C         1.701886         1.272708        -1.041189
 C         2.650402         1.292743         0.157210
 O         1.881778         0.594993         1.109597
 H        -0.040423        -1.544156         0.766320
 H        -0.430608         0.176356         0.888435
 H        -0.653614        -0.689704        -0.723433
 H         3.084070        -1.627181         0.061674
 H         2.478629        -1.466280        -1.553569
 H         5.308340         1.107150        -1.445785
 H         5.271210         0.246460         0.152547
 H         5.258524        -0.726937        -1.392597
 H         0.871016         1.984576        -1.256331
 H         3.031274         2.180491         0.657353
