19
Iteration:  1591
 C        -0.132238        -0.747347         0.189182
 C         1.293239        -0.008224        -0.080331
 C         2.534180        -0.936593        -0.439162
 C         3.373882         0.282263        -0.851132
 C         4.897167         0.166200        -1.036385
 O         2.722068         0.881297        -1.934044
 C         1.626265         1.223403        -0.913474
 C         2.705988         1.384661         0.176323
 O         1.865500         0.750014         1.074595
 H        -0.166929        -1.524572         0.937567
 H        -1.041291        -0.200218         0.460011
 H        -0.337875        -1.310379        -0.787135
 H         2.814528        -1.255195         0.512898
 H         2.409451        -1.780569        -1.193019
 H         5.259044         1.185533        -1.366784
 H         5.377661        -0.182128        -0.048307
 H         5.196959        -0.533731        -1.793366
 H         0.748112         1.724470        -1.184380
 H         3.104741         2.247082         0.757951
