19
Iteration:  4348
 C        -0.019099        -0.760341         0.220402
 C         1.325546        -0.083470        -0.090472
 C         2.559121        -0.895363        -0.529532
 C         3.379234         0.297942        -0.691513
 C         4.788854         0.106512        -0.967726
 O         2.660366         0.881582        -1.922900
 C         1.692442         1.259954        -1.047455
 C         2.607457         1.484920         0.149908
 O         1.879588         0.698853         1.084767
 H         0.077921        -1.555222         1.020576
 H        -0.791393        -0.152460         0.563050
 H        -0.519049        -1.114217        -0.681157
 H         2.911518        -1.473331         0.335417
 H         2.589790        -1.549527        -1.446117
 H         5.441475         0.984980        -0.717504
 H         5.241584        -0.786182        -0.471256
 H         4.842552         0.049131        -2.068942
 H         0.843783         1.876528        -1.413661
 H         3.064087         2.352518         0.853470
