19
Iteration:   605
 C        -0.096070        -0.653582         0.175522
 C         1.245224        -0.050635        -0.039862
 C         2.522937        -0.896819        -0.522982
 C         3.362334         0.229207        -0.898941
 C         4.893782         0.263204        -0.921878
 O         2.705159         0.901012        -2.016288
 C         1.659222         1.260917        -0.937363
 C         2.663606         1.293752         0.212969
 O         1.899068         0.593028         1.141293
 H        -0.149818        -1.630887         0.724396
 H        -0.654399        -0.029827         0.779405
 H        -0.670354        -0.918994        -0.808692
 H         2.873569        -1.567293         0.152560
 H         2.305256        -1.348675        -1.615660
 H         5.200728         1.273561        -1.278529
 H         5.170170         0.343719         0.114281
 H         5.423550        -0.628923        -1.321722
 H         0.890887         2.028444        -1.197816
 H         3.275767         2.054800         0.726550
