19
Iteration:  3192
 C        -0.063667        -0.598161         0.146394
 C         1.280587        -0.025872        -0.104071
 C         2.487343        -0.886274        -0.513116
 C         3.375886         0.297411        -0.870832
 C         4.909070         0.240240        -0.929094
 O         2.606788         0.786469        -1.958261
 C         1.659476         1.172821        -0.933630
 C         2.730697         1.358481         0.173862
 O         1.906064         0.627853         1.164805
 H        -0.178113        -1.493387         0.773831
 H        -0.844929         0.120929         0.600955
 H        -0.539540        -0.870078        -0.815780
 H         2.773040        -1.517351         0.317388
 H         2.231183        -1.595249        -1.372819
 H         5.429029         1.295811        -1.083336
 H         5.285573        -0.123756         0.020490
 H         5.313951        -0.429211        -1.735239
 H         0.847205         1.922084        -1.155128
 H         3.268873         2.189767         0.597303
