19
Iteration:  2726
 C        -0.067228        -0.521568        -0.029748
 C         1.288921        -0.056690         0.001928
 C         2.499871        -0.950717        -0.327063
 C         3.408013         0.269971        -0.724586
 C         4.914091         0.210922        -1.149598
 O         2.583794         0.749216        -1.919700
 C         1.687505         1.156142        -0.926723
 C         2.702003         1.421651         0.194796
 O         1.866043         0.695905         1.195137
 H        -0.202082        -1.184110         0.901521
 H        -1.069679         0.074910        -0.196783
 H        -0.086342        -1.320332        -0.824673
 H         3.017785        -1.658618         0.246050
 H         2.429315        -1.457968        -1.348669
 H         5.176116         1.176134        -1.420679
 H         5.536622        -0.003532        -0.282905
 H         4.937025        -0.594108        -1.917996
 H         0.977283         1.949568        -1.184073
 H         3.229579         2.373513         0.254209
