19
Iteration:  4851
 C        -0.080362        -0.589254         0.111760
 C         1.301029        -0.071319        -0.070018
 C         2.421910        -1.011593        -0.503036
 C         3.437154         0.335558        -0.771050
 C         4.942827         0.252554        -0.988468
 O         2.673040         0.904949        -1.932723
 C         1.625348         1.206792        -0.993816
 C         2.626952         1.273036         0.181152
 O         1.916147         0.611255         1.189819
 H        -0.246953        -1.411930         0.831784
 H        -0.768610         0.140831         0.589541
 H        -0.344829        -0.731302        -0.920732
 H         2.659411        -1.489625         0.496674
 H         2.344098        -1.660537        -1.384593
 H         5.472274         1.273741        -1.065561
 H         5.651287        -0.373760        -0.383289
 H         5.083137        -0.173284        -1.996947
 H         0.719307         1.884652        -1.246617
 H         3.051106         2.364366         0.460590
