19
Iteration:    39charge 0 multiplicity 1
 C        -0.075077        -0.622867        -0.034700
 C         1.268342        -0.041629        -0.029113
 C         2.543927        -0.885131        -0.423166
 C         3.458834         0.255444        -0.776401
 C         4.971177         0.248214        -1.170323
 O         2.604495         0.926105        -1.849527
 C         1.666791         1.212727        -0.875804
 C         2.596856         1.265130         0.337587
 O         1.833485         0.611661         1.116501
 H        -0.145901        -1.426955         0.714577
 H        -0.967908         0.040920         0.005119
 H        -0.221776        -1.102357        -1.100097
 H         2.891112        -1.504164         0.409505
 H         2.469865        -1.721655        -1.214026
 H         5.480508        -0.775936        -1.082538
 H         5.006322         0.419311        -2.287027
 H         5.532989         1.050075        -0.586730
 H         0.931424         1.994724        -1.192972
 H         3.184942         2.076584         0.824734
