19
Iteration:  2229charge 0 multiplicity 1
 C         0.028521        -0.702592        -0.083241
 C         1.362480         0.008714         0.011819
 C         2.545192        -0.917342        -0.418710
 C         3.395355         0.301070        -0.788404
 C         4.746496         0.083333        -1.253257
 O         2.635199         0.905133        -1.935990
 C         1.702488         1.314783        -0.834916
 C         2.705411         1.391044         0.331515
 O         1.765639         0.628357         1.244420
 H        -0.062581        -1.553600         0.624564
 H        -0.687868         0.068142         0.160323
 H        -0.284406        -1.088593        -1.052332
 H         3.027094        -1.343139         0.563222
 H         2.452497        -1.714137        -1.200977
 H         5.237479         1.001646        -1.636839
 H         5.352239        -0.392963        -0.375348
 H         4.835649        -0.704634        -2.045411
 H         0.997786         2.036950        -1.189786
 H         3.226770         2.247225         0.739052
