19
Iteration:  1113
 C        -0.093993        -0.713057         0.253286
 C         1.275701        -0.104476        -0.048894
 C         2.481606        -0.897568        -0.501180
 C         3.391756         0.273398        -0.859371
 C         4.818183         0.231811        -0.942868
 O         2.682496         0.862748        -1.969553
 C         1.687064         1.274656        -1.009985
 C         2.716030         1.341787         0.161714
 O         1.909093         0.672380         1.115180
 H         0.029126        -1.406649         1.031058
 H        -0.734022         0.138878         0.590225
 H        -0.602095        -1.145663        -0.634797
 H         2.760664        -1.567820         0.227121
 H         2.288737        -1.414742        -1.479448
 H         5.338018         1.253783        -0.942853
 H         5.046102        -0.238646         0.013808
 H         5.325482        -0.436683        -1.658109
 H         0.915711         1.890185        -1.383328
 H         3.196623         2.321706         0.359667
