19
Iteration:  1973
 C        -0.066935        -0.571184         0.293539
 C         1.334048        -0.089122        -0.089431
 C         2.510369        -0.991884        -0.646729
 C         3.324266         0.290226        -0.896379
 C         4.811514         0.195848        -0.829022
 O         2.684820         0.962439        -2.017262
 C         1.645198         1.279582        -0.961177
 C         2.605040         1.314068         0.184621
 O         1.989614         0.541858         1.132864
 H         0.149704        -1.314586         1.027018
 H        -0.593461         0.304711         0.592103
 H        -0.731051        -1.188843        -0.410311
 H         2.739207        -1.576980         0.147162
 H         2.176776        -1.512092        -1.609438
 H         5.219726         1.296785        -1.059701
 H         5.147910        -0.144298         0.140313
 H         5.392512        -0.446426        -1.575332
 H         0.979984         2.035132        -1.345304
 H         3.112731         2.180281         0.661016
