19
Iteration:  3364
 C        -0.080156        -0.574580         0.118652
 C         1.281377        -0.124003        -0.029196
 C         2.508132        -0.975850        -0.425397
 C         3.432607         0.365524        -0.797577
 C         4.893924         0.247665        -1.042786
 O         2.652526         0.851978        -1.906178
 C         1.603198         1.282989        -0.964226
 C         2.679950         1.267350         0.154863
 O         1.889727         0.586329         1.093226
 H        -0.234113        -1.391695         0.798645
 H        -0.789429         0.233880         0.464133
 H        -0.579817        -0.949062        -0.828910
 H         2.888218        -1.292084         0.512942
 H         2.618333        -1.756864        -1.188417
 H         5.443498         1.174720        -0.625860
 H         5.234385        -0.577009        -0.566443
 H         5.164260         0.235005        -2.067106
 H         0.859885         2.145339        -1.163369
 H         3.233641         2.125374         0.587426
