19
Iteration:  3633
 C        -0.073489        -0.636952         0.128332
 C         1.319693        -0.070451        -0.100647
 C         2.506410        -0.951286        -0.535288
 C         3.356245         0.334090        -0.740004
 C         4.855952         0.224056        -0.984146
 O         2.612785         0.865120        -1.903618
 C         1.660743         1.307288        -0.959818
 C         2.722999         1.377134         0.179153
 O         1.932815         0.530116         1.116665
 H        -0.357946        -1.450362         0.844378
 H        -0.623547         0.206158         0.508886
 H        -0.480325        -0.980593        -0.891593
 H         2.761165        -1.638885         0.243573
 H         2.276352        -1.305612        -1.572163
 H         5.301381         1.180342        -1.241370
 H         5.410018        -0.019829        -0.023193
 H         5.183436        -0.590018        -1.613550
 H         0.821543         1.967258        -1.239840
 H         3.141852         2.133375         0.813993
