19
Iteration:   551charge 0 multiplicity 1
 C        -0.021329        -0.679171         0.039366
 C         1.286480        -0.101204         0.011359
 C         2.582194        -0.914981        -0.418576
 C         3.393226         0.308057        -0.855433
 C         4.870439         0.152286        -1.100235
 O         2.641012         0.945578        -1.891885
 C         1.735721         1.277635        -0.948263
 C         2.618769         1.410542         0.264544
 O         1.766736         0.605990         1.185390
 H        -0.284952        -1.398130         0.845730
 H        -0.830489        -0.035015         0.147782
 H        -0.159278        -1.164847        -1.038145
 H         3.061361        -1.367254         0.370817
 H         2.597241        -1.750845        -1.253230
 H         5.485894         1.016256        -1.495789
 H         5.318398        -0.410005        -0.306873
 H         4.855984        -0.516022        -2.019945
 H         0.940810         1.955334        -1.354014
 H         3.243600         2.248452         0.593924
