19
Iteration:   738
 C        -0.092363        -0.681182         0.055192
 C         1.390282        -0.137657        -0.157254
 C         2.512357        -0.991679        -0.458784
 C         3.405106         0.295476        -0.830566
 C         4.866243         0.194378        -1.074965
 O         2.644664         0.875326        -1.907299
 C         1.721127         1.268800        -0.855571
 C         2.605652         1.439522         0.269396
 O         1.872943         0.707067         1.173417
 H        -0.210507        -1.472733         0.831995
 H        -0.793657         0.115879         0.263280
 H        -0.437496        -1.022556        -0.903948
 H         2.651790        -1.559363         0.526160
 H         2.263639        -1.613121        -1.308253
 H         5.356391         1.046246        -1.398740
 H         5.428686        -0.303611        -0.183606
 H         4.999922        -0.471001        -1.921770
 H         0.812764         1.848870        -1.107780
 H         3.093576         2.300606         0.667597
