19
Iteration:  4744charge 0 multiplicity 1
 C        -0.071705        -0.563562         0.109263
 C         1.317660        -0.061147        -0.070448
 C         2.517830        -0.888092        -0.463034
 C         3.410851         0.259873        -0.785786
 C         4.884062         0.218544        -1.070973
 O         2.615784         0.887116        -1.899219
 C         1.675091         1.150150        -0.915973
 C         2.677931         1.370487         0.239320
 O         1.864810         0.575372         1.075131
 H        -0.246314        -1.444350         0.715492
 H        -0.836518         0.299303         0.271319
 H        -0.353765        -1.096731        -0.838642
 H         2.729911        -1.335533         0.533543
 H         2.391977        -1.689219        -1.210876
 H         5.248414         1.238116        -1.395436
 H         5.372192        -0.022986        -0.127766
 H         5.251371        -0.459093        -1.808747
 H         0.853360         1.950999        -1.164232
 H         3.302493         2.157145         0.791071
