19
Iteration:  1024charge 0 multiplicity 1
 C         0.006719        -0.686125         0.053898
 C         1.281013        -0.024038        -0.017499
 C         2.532127        -0.942229        -0.470308
 C         3.382398         0.336118        -0.841182
 C         4.887652         0.155589        -1.091325
 O         2.650152         0.783975        -1.890621
 C         1.672340         1.277109        -0.862849
 C         2.706565         1.383389         0.216344
 O         1.806600         0.721548         1.122836
 H        -0.116620        -1.412173         0.858262
 H        -0.945322        -0.091352         0.328289
 H        -0.330093        -1.112247        -0.877025
 H         2.917326        -1.405807         0.411322
 H         2.331010        -1.495696        -1.396174
 H         5.413393         1.068408        -1.315262
 H         5.318935        -0.354256        -0.200365
 H         4.922179        -0.648365        -1.820971
 H         0.866578         1.893577        -1.262903
 H         3.033805         2.310855         0.805680
