19
Iteration:   657charge 0 multiplicity 1
 C        -0.152877        -0.621482         0.160328
 C         1.314208        -0.093854        -0.059133
 C         2.516147        -0.894250        -0.546713
 C         3.413454         0.446429        -0.806171
 C         4.913301         0.204967        -0.975429
 O         2.671010         0.879818        -1.979776
 C         1.678679         1.157105        -0.971349
 C         2.685389         1.328853         0.188905
 O         1.856444         0.570430         1.204084
 H        -0.153485        -1.424377         0.866860
 H        -0.745299         0.244290         0.449464
 H        -0.717197        -1.143473        -0.738392
 H         2.948048        -1.474138         0.261669
 H         2.331539        -1.407252        -1.546607
 H         5.571042         1.141885        -0.986596
 H         5.233938        -0.356675        -0.158990
 H         5.063454        -0.470474        -1.846763
 H         0.930813         1.871561        -1.280720
 H         3.023808         2.315884         0.596409
