19
Iteration:  4119charge 0 multiplicity 1
 C        -0.095313        -0.602942         0.098606
 C         1.286919        -0.089967        -0.117042
 C         2.563396        -0.994945        -0.369293
 C         3.404446         0.204595        -0.842476
 C         4.911990         0.294952        -1.062183
 O         2.642243         0.870266        -1.960872
 C         1.709488         1.187297        -0.874182
 C         2.667861         1.337978         0.198390
 O         1.817698         0.707458         1.151979
 H        -0.073052        -1.531896         0.754516
 H        -0.629459         0.246757         0.532957
 H        -0.536667        -1.006674        -0.841987
 H         2.821214        -1.603569         0.456538
 H         2.313803        -1.738648        -1.121252
 H         5.053798         1.425145        -1.014652
 H         5.341437        -0.259593        -0.267585
 H         5.234657        -0.106802        -2.024497
 H         0.833495         1.816256        -1.248576
 H         3.239992         2.306357         0.424766
