19
Iteration:   833charge 0 multiplicity 1
 C        -0.085922        -0.690843         0.150621
 C         1.262156        -0.050249        -0.101350
 C         2.573988        -0.929175        -0.458942
 C         3.384338         0.270982        -0.858192
 C         4.922857         0.154150        -1.011065
 O         2.631202         0.913539        -1.942581
 C         1.706221         1.307842        -0.967049
 C         2.653609         1.381597         0.225445
 O         1.828371         0.615257         1.172867
 H         0.016298        -1.426615         0.985318
 H        -0.780768         0.066276         0.416470
 H        -0.443973        -1.066954        -0.905129
 H         2.969563        -1.372000         0.432006
 H         2.243607        -1.659311        -1.273681
 H         5.408659         1.165729        -1.187731
 H         5.237566        -0.311248        -0.074275
 H         5.148949        -0.539430        -1.861726
 H         0.921581         1.954783        -1.398652
 H         3.259427         2.233747         0.519564
