19
Iteration:  1871charge 0 multiplicity 1
 C        -0.051476        -0.612272        -0.048746
 C         1.354256        -0.076708         0.009126
 C         2.593661        -0.908569        -0.365182
 C         3.375166         0.265678        -0.913539
 C         4.863327         0.158833        -1.186790
 O         2.639169         0.819844        -1.933728
 C         1.647273         1.246523        -0.852240
 C         2.681239         1.410921         0.289993
 O         1.779404         0.664705         1.233052
 H        -0.288192        -1.247530         0.790922
 H        -0.820823         0.147084         0.109040
 H        -0.300532        -1.053844        -1.010532
 H         3.252334        -1.430369         0.458306
 H         2.367675        -1.585616        -1.102527
 H         5.350288         1.153367        -1.267538
 H         5.403356        -0.503813        -0.410090
 H         5.091624        -0.321033        -2.122659
 H         0.842581         1.909690        -1.200747
 H         3.182895         2.201514         0.870348
