19
Iteration:  4482
 C         0.067399        -0.729417         0.191103
 C         1.278950         0.032634        -0.114744
 C         2.459842        -0.858937        -0.512304
 C         3.385955         0.353705        -0.799209
 C         4.920187         0.110972        -0.914924
 O         2.608353         0.824167        -2.019989
 C         1.620375         1.335056        -0.958156
 C         2.656037         1.427884         0.159477
 O         1.872480         0.548115         1.156978
 H         0.293129        -1.729213         0.612469
 H        -0.425653        -0.123346         0.930914
 H        -0.513129        -0.921462        -0.704036
 H         2.658343        -1.553050         0.311919
 H         2.170421        -1.327547        -1.429563
 H         5.380165         0.723789        -1.688283
 H         5.414752         0.304554         0.120978
 H         5.171065        -0.953135        -1.251181
 H         0.876285         2.063328        -1.292883
 H         2.957693         2.333444         0.667502
