19
Iteration:   332
 C        -0.103604        -0.692820         0.103942
 C         1.365375        -0.079881        -0.079178
 C         2.533871        -0.959784        -0.418417
 C         3.395355         0.335405        -0.767289
 C         4.876742         0.235700        -1.051499
 O         2.658551         0.871711        -1.934404
 C         1.648385         1.241216        -0.901048
 C         2.685817         1.345195         0.161354
 O         1.814147         0.664822         1.137520
 H        -0.179418        -1.318353         1.002127
 H        -0.779288         0.124596         0.260868
 H        -0.578688        -1.284085        -0.760919
 H         2.915209        -1.563168         0.369700
 H         2.612164        -1.552342        -1.404112
 H         5.334729         1.163930        -0.603087
 H         5.305335        -0.583568        -0.481390
 H         5.186897         0.201503        -2.115252
 H         0.772646         1.738386        -1.405063
 H         3.365364         2.224914         0.405564
