19
Iteration:  4101
 C        -0.044790        -0.568833         0.064814
 C         1.273529        -0.049650         0.010810
 C         2.579902        -0.943117        -0.422084
 C         3.419888         0.284811        -0.795344
 C         4.919459         0.291846        -1.135732
 O         2.611905         0.761640        -1.884345
 C         1.663279         1.249819        -0.983671
 C         2.729211         1.312873         0.225282
 O         1.746730         0.647624         1.122486
 H        -0.249641        -1.458116         0.729908
 H        -0.782577         0.173702         0.310813
 H        -0.315186        -1.028731        -0.883025
 H         3.064691        -1.380010         0.507598
 H         2.565097        -1.772202        -1.197370
 H         5.125368         1.296254        -1.510899
 H         5.456971         0.005215        -0.126174
 H         5.050242        -0.493848        -1.917905
 H         0.910668         2.031732        -1.066370
 H         3.289073         1.978207         0.864333
