19
Iteration:  3141
 C        -0.064388        -0.671174         0.356537
 C         1.235537        -0.016542        -0.108133
 C         2.519095        -0.931611        -0.467141
 C         3.396135         0.352213        -0.901071
 C         4.904814         0.097217        -0.894361
 O         2.720682         0.972786        -1.986455
 C         1.616987         1.276091        -1.011921
 C         2.722360         1.330615         0.096099
 O         1.792065         0.613441         1.068702
 H         0.274901        -1.404115         1.217866
 H        -0.845690         0.027632         0.619942
 H        -0.413178        -1.411825        -0.373291
 H         2.973150        -1.679746         0.303380
 H         2.457548        -1.628054        -1.367238
 H         5.597271         0.838629        -0.670725
 H         5.052134        -0.732016        -0.107216
 H         5.270844        -0.157112        -1.928862
 H         0.964685         2.036403        -1.336681
 H         2.838428         2.332863         0.565962
