19
Iteration:   480charge 0 multiplicity 1
 C        -0.098084        -0.643672         0.193573
 C         1.305215        -0.047051        -0.095155
 C         2.562920        -0.949953        -0.599000
 C         3.427524         0.272936        -0.795931
 C         4.931161         0.268761        -0.895148
 O         2.616169         0.941820        -1.942347
 C         1.618798         1.184497        -0.934335
 C         2.668468         1.301014         0.096727
 O         1.872693         0.618670         1.139862
 H        -0.174248        -1.385524         1.009815
 H        -0.875224         0.197209         0.540453
 H        -0.631184        -1.010970        -0.632605
 H         2.952926        -1.560852         0.362309
 H         2.400099        -1.588611        -1.423598
 H         5.456771         1.209689        -0.873054
 H         5.169965        -0.462343        -0.047238
 H         5.227997        -0.199406        -1.828535
 H         0.804107         1.831310        -1.250713
 H         3.199622         2.199813         0.419624
