19
Iteration:   775charge 0 multiplicity 1
 C        -0.078677        -0.579964         0.236999
 C         1.277806        -0.139278        -0.101751
 C         2.462588        -0.973989        -0.516579
 C         3.435236         0.361176        -0.840010
 C         4.893448         0.255847        -0.873065
 O         2.667933         0.913937        -2.028022
 C         1.641948         1.202742        -0.940321
 C         2.690375         1.335153         0.167848
 O         1.885506         0.553776         1.114075
 H        -0.258146        -1.523279         0.686428
 H        -0.553806         0.314242         0.794451
 H        -0.583452        -0.643882        -0.727772
 H         2.950819        -1.678483         0.185207
 H         2.216486        -1.526744        -1.440513
 H         5.360666         1.181161        -1.378631
 H         5.265714         0.171442         0.132679
 H         5.152471        -0.677495        -1.429295
 H         0.848613         1.902684        -1.191966
 H         3.217915         2.287794         0.480100
