19
Iteration:  1066charge 0 multiplicity 1
 C        -0.135960        -0.617381         0.086792
 C         1.266722        -0.167118        -0.013235
 C         2.585802        -0.934156        -0.351377
 C         3.406856         0.380894        -0.828628
 C         4.819573         0.200704        -1.119232
 O         2.682595         0.852287        -1.909212
 C         1.691287         1.220882        -0.995739
 C         2.641042         1.354337         0.224687
 O         1.873323         0.665326         1.126828
 H        -0.250951        -1.150399         1.081591
 H        -0.899721         0.209919        -0.114862
 H        -0.228842        -1.293049        -0.742709
 H         2.990319        -1.385948         0.601665
 H         2.430777        -1.650731        -1.123234
 H         5.371621         1.121269        -1.061342
 H         5.443846        -0.640970        -0.447447
 H         5.041510        -0.211695        -2.119821
 H         1.011684         2.084363        -1.142220
 H         3.232534         2.212927         0.638054
