19
Iteration:   597charge 0 multiplicity 1
 C        -0.140145        -0.687360         0.161905
 C         1.265097        -0.060565         0.002364
 C         2.518472        -0.912559        -0.613404
 C         3.430296         0.278263        -0.820512
 C         4.930554         0.214558        -0.920672
 O         2.646653         0.890290        -1.948924
 C         1.635691         1.304621        -0.991029
 C         2.690827         1.338397         0.206169
 O         1.902046         0.587326         1.112799
 H        -0.165909        -1.645082         0.768291
 H        -0.930932        -0.026904         0.734635
 H        -0.488136        -0.801598        -0.860691
 H         2.941203        -1.550797         0.229073
 H         2.294896        -1.616834        -1.384952
 H         5.168574         1.119746        -1.470008
 H         5.370445         0.295753         0.139763
 H         5.430165        -0.566839        -1.510225
 H         0.843895         2.075255        -1.162936
 H         3.132175         2.204645         0.682965
