19
Iteration:  4351charge 0 multiplicity 1
 C        -0.005653        -0.754819         0.205689
 C         1.337871        -0.079974        -0.079601
 C         2.542320        -0.883738        -0.531903
 C         3.382175         0.307347        -0.710728
 C         4.810139         0.118342        -0.977279
 O         2.646005         0.868571        -1.923550
 C         1.702829         1.241781        -1.045318
 C         2.627353         1.492206         0.177253
 O         1.853563         0.689237         1.101927
 H         0.059488        -1.564876         1.074535
 H        -0.792189        -0.057498         0.498421
 H        -0.490568        -1.154030        -0.689285
 H         2.810678        -1.506423         0.296535
 H         2.447267        -1.454489        -1.419906
 H         5.457175         0.875546        -0.726182
 H         5.349057        -0.786770        -0.525930
 H         4.978799         0.013247        -2.064806
 H         0.885633         1.806802        -1.317469
 H         2.881572         2.450582         0.651421
