19
Iteration:  3608charge 0 multiplicity 1
 C        -0.062280        -0.685818        -0.035416
 C         1.272467        -0.005811        -0.017268
 C         2.528492        -0.965725        -0.452720
 C         3.397838         0.343796        -0.797034
 C         4.886384         0.139552        -1.123634
 O         2.653288         0.960904        -1.917413
 C         1.631653         1.188981        -0.907554
 C         2.680068         1.318857         0.214611
 O         1.881129         0.686345         1.230860
 H        -0.187732        -1.526117         0.729356
 H        -0.865627        -0.015176         0.343590
 H        -0.211242        -1.145353        -1.001493
 H         2.861628        -1.512923         0.467050
 H         2.228181        -1.525115        -1.348251
 H         5.464466         0.988855        -1.127195
 H         5.435313        -0.441477        -0.354583
 H         5.075213        -0.508893        -1.960023
 H         0.905337         1.950391        -0.968439
 H         3.071921         2.216925         0.725627
