19
Iteration:  3395
 C         0.001919        -0.644218        -0.080482
 C         1.347117        -0.091942         0.035048
 C         2.514604        -0.924116        -0.401817
 C         3.423834         0.285732        -0.771190
 C         4.900118         0.123340        -1.229029
 O         2.601888         0.832916        -1.877273
 C         1.646437         1.212627        -0.880042
 C         2.649196         1.404602         0.287925
 O         1.825017         0.735985         1.208887
 H        -0.222217        -1.536612         0.523269
 H        -0.751959         0.110676         0.173481
 H        -0.232829        -1.059019        -1.138943
 H         2.898036        -1.575331         0.369173
 H         2.278263        -1.427581        -1.373759
 H         5.385796         1.140240        -0.999938
 H         5.339208        -0.523486        -0.571097
 H         5.066417        -0.047257        -2.269593
 H         0.808377         1.939212        -1.161478
 H         3.144185         2.320324         0.719690
