19
Iteration:  4072charge 0 multiplicity 1
 C        -0.091645        -0.654033        -0.028669
 C         1.279008        -0.068919        -0.040897
 C         2.498182        -0.931779        -0.412194
 C         3.406145         0.310786        -0.743049
 C         4.876469         0.160841        -1.099420
 O         2.649982         0.900813        -1.839610
 C         1.634804         1.160987        -0.951909
 C         2.644652         1.443137         0.168873
 O         1.977809         0.654319         1.175812
 H        -0.119630        -1.332865         0.769931
 H        -0.929671         0.132658         0.120642
 H        -0.243787        -1.304569        -0.928555
 H         2.923860        -1.524980         0.428099
 H         2.388798        -1.632665        -1.221293
 H         5.039062         0.914043        -1.809783
 H         5.429409         0.257742        -0.197180
 H         5.060784        -0.818945        -1.525428
 H         0.823126         1.815642        -1.179009
 H         2.960101         2.398350         0.547024
