19
Iteration:  3079charge 0 multiplicity 1
 C        -0.079833        -0.583815        -0.051505
 C         1.315373        -0.059403        -0.004285
 C         2.563132        -0.929213        -0.297292
 C         3.433218         0.283803        -0.791450
 C         4.898706         0.172312        -1.126999
 O         2.525248         0.818361        -1.952499
 C         1.651693         1.207663        -0.943928
 C         2.749836         1.298688         0.257003
 O         1.862603         0.701602         1.175264
 H        -0.436965        -1.327632         0.679473
 H        -0.779774         0.221497         0.049355
 H        -0.167150        -0.943130        -1.108746
 H         3.012069        -1.261528         0.635653
 H         2.531676        -1.593172        -1.099777
 H         4.985018         1.218775        -1.663632
 H         5.550572         0.025348        -0.189916
 H         5.075150        -0.715618        -1.711482
 H         0.827431         1.879544        -1.207767
 H         3.152459         2.327765         0.648688
