19
Iteration:  4879charge 0 multiplicity 1
 C        -0.156013        -0.544373         0.066351
 C         1.348010        -0.096117        -0.060590
 C         2.578216        -0.987625        -0.489486
 C         3.403498         0.321497        -0.808600
 C         4.816624         0.305177        -1.024805
 O         2.637851         0.784823        -1.929827
 C         1.740058         1.292010        -0.906819
 C         2.705008         1.303552         0.219150
 O         1.821162         0.564099         1.147842
 H        -0.348678        -1.543152         0.562283
 H        -0.547364         0.186462         0.775041
 H        -0.575923        -0.467824        -0.966772
 H         2.963814        -1.426951         0.423072
 H         2.631598        -1.645507        -1.358686
 H         5.129806         1.219714        -1.475374
 H         5.353080         0.194903        -0.083486
 H         5.121610        -0.520518        -1.743955
 H         0.924338         1.933885        -0.990923
 H         3.121199         2.183919         0.518281
