19
Iteration:   769charge 0 multiplicity 1
 C        -0.094500        -0.558198         0.218166
 C         1.360989        -0.099072        -0.043959
 C         2.478557        -0.893682        -0.491389
 C         3.457009         0.370569        -0.834630
 C         4.877981         0.261686        -0.889596
 O         2.641863         0.915922        -2.003913
 C         1.665955         1.189423        -0.946154
 C         2.690552         1.312516         0.103880
 O         1.837018         0.497052         1.098487
 H        -0.334843        -1.512975         0.816247
 H        -0.639944         0.125779         0.783962
 H        -0.621295        -0.693885        -0.820901
 H         2.822334        -1.616426         0.243500
 H         2.289542        -1.572207        -1.389459
 H         5.459468         1.062715        -1.333707
 H         5.436065         0.089210         0.074268
 H         4.995122        -0.673289        -1.450327
 H         0.822297         1.855444        -1.215071
 H         3.215733         2.163498         0.467145
