19
Iteration:  2667
 C        -0.006544        -0.692108         0.319423
 C         1.273014        -0.037335        -0.113322
 C         2.468744        -0.898793        -0.584996
 C         3.408099         0.309763        -0.816653
 C         4.858853         0.057846        -0.852786
 O         2.702045         0.881264        -1.980928
 C         1.567228         1.221480        -1.009887
 C         2.632251         1.414162         0.145095
 O         1.892190         0.706980         1.088835
 H         0.162902        -1.707910         0.738171
 H        -0.400229        -0.024271         1.067659
 H        -0.637974        -0.659427        -0.598597
 H         2.866016        -1.591553         0.202836
 H         2.422740        -1.348819        -1.557599
 H         5.540181         0.868513        -1.293959
 H         5.112148        -0.178006         0.199313
 H         5.226030        -0.822379        -1.485881
 H         0.935007         2.050869        -1.395149
 H         3.185681         2.339959         0.438086
