19
Iteration:  4303
 C        -0.060673        -0.672994         0.168658
 C         1.298842        -0.063501        -0.045443
 C         2.585021        -0.958666        -0.533024
 C         3.418908         0.220708        -0.847966
 C         4.992929         0.188062        -0.973341
 O         2.582625         0.861400        -1.977352
 C         1.640297         1.243189        -0.970430
 C         2.617311         1.391385         0.287098
 O         1.789972         0.735578         1.141310
 H         0.085387        -1.598492         0.671198
 H        -0.796609        -0.094617         0.746916
 H        -0.531584        -0.820422        -0.814162
 H         2.888688        -1.663225         0.264794
 H         2.295190        -1.553036        -1.464330
 H         5.446343         1.205196        -1.280413
 H         5.546949        -0.057443        -0.101942
 H         5.426193        -0.437623        -1.764125
 H         0.746866         1.869884        -1.370846
 H         3.355753         2.257844         0.553809
