19
Iteration:   717charge 0 multiplicity 1
 C        -0.024110        -0.705766        -0.000371
 C         1.317689         0.041484         0.010845
 C         2.525764        -0.864708        -0.391286
 C         3.422346         0.274518        -0.726037
 C         4.833217         0.145445        -1.165231
 O         2.669176         0.892816        -1.890881
 C         1.638660         1.241381        -0.908097
 C         2.701114         1.278957         0.195195
 O         1.770458         0.671295         1.182612
 H        -0.141543        -1.446357         0.811939
 H        -1.025636        -0.162800        -0.013438
 H         0.051696        -1.108314        -0.975419
 H         3.093621        -1.566701         0.361341
 H         2.349908        -1.385813        -1.302402
 H         5.242444         1.099806        -1.282306
 H         5.593576        -0.403477        -0.441251
 H         4.962813        -0.265830        -2.153955
 H         0.938634         1.998428        -1.296559
 H         3.262478         2.118623         0.545252
