19
Iteration:   130charge 0 multiplicity 1
 C        -0.013624        -0.684701         0.266706
 C         1.331119        -0.119520        -0.116669
 C         2.470625        -0.987843        -0.600522
 C         3.400953         0.288003        -0.780796
 C         4.849675         0.298335        -0.913413
 O         2.674706         0.937509        -1.908199
 C         1.641538         1.274728        -1.035027
 C         2.705985         1.377061         0.182472
 O         1.830754         0.592000         1.102325
 H         0.002923        -1.602566         0.916743
 H        -0.599177         0.140927         0.693434
 H        -0.473582        -1.014369        -0.777217
 H         2.631560        -1.683423         0.283450
 H         2.339379        -1.518774        -1.607022
 H         5.181817        -0.043368        -1.961516
 H         5.444152         1.156412        -0.542905
 H         5.007434        -0.634042        -0.219997
 H         0.949059         1.994676        -1.496664
 H         3.138078         2.217220         0.660400
