19
Iteration:  2767
 C        -0.108827        -0.573136         0.085842
 C         1.310444        -0.021713        -0.052789
 C         2.616688        -0.953420        -0.249355
 C         3.414327         0.224731        -0.797680
 C         4.817082         0.187874        -1.055417
 O         2.600454         0.890901        -2.021135
 C         1.687572         1.156980        -0.938391
 C         2.674553         1.318589         0.148706
 O         1.866052         0.670399         1.129379
 H        -0.246481        -0.943466         1.044580
 H        -0.732338         0.307548        -0.144977
 H        -0.223939        -1.309982        -0.742493
 H         2.825466        -1.458504         0.663201
 H         2.550880        -1.673777        -1.089595
 H         5.163265         1.224481        -1.007748
 H         5.367548        -0.362998        -0.334417
 H         5.265946        -0.265630        -2.051325
 H         0.980836         2.026759        -1.129235
 H         2.984138         2.228620         0.457571
