19
Iteration:   568
 C        -0.036513        -0.677934         0.030500
 C         1.353736        -0.056156        -0.097453
 C         2.564775        -0.867164        -0.455831
 C         3.414942         0.339247        -0.772726
 C         4.814852         0.111605        -1.068440
 O         2.690521         0.916642        -1.929679
 C         1.576705         1.216690        -0.916042
 C         2.635615         1.347547         0.256219
 O         1.858644         0.626048         1.165081
 H         0.149184        -1.450275         0.762876
 H        -0.676884         0.253871         0.239040
 H        -0.448077        -1.052210        -0.871854
 H         2.882375        -1.592490         0.439261
 H         2.391407        -1.488463        -1.314486
 H         5.200967         1.054358        -1.477775
 H         5.316128        -0.088636        -0.091112
 H         5.122741        -0.606382        -1.811670
 H         0.721223         1.891177        -1.012548
 H         3.009544         2.266540         0.747853
