19
Iteration:  4343
 C        -0.031800        -0.765423         0.233352
 C         1.295030        -0.083799        -0.100463
 C         2.576273        -0.928860        -0.503760
 C         3.382375         0.315344        -0.687497
 C         4.787403         0.105701        -0.958891
 O         2.691486         0.899276        -1.932082
 C         1.647125         1.295980        -1.040398
 C         2.594334         1.462277         0.145288
 O         1.901970         0.702647         1.058352
 H         0.148516        -1.600140         0.896793
 H        -0.828182        -0.085863         0.759185
 H        -0.481849        -1.157775        -0.703990
 H         3.018076        -1.452302         0.381031
 H         2.715261        -1.575099        -1.380020
 H         5.344830         1.043890        -0.709251
 H         5.077315        -0.786153        -0.418012
 H         4.714369         0.023625        -2.055178
 H         0.869191         1.940733        -1.523247
 H         3.262312         2.046674         0.767064
