19
Iteration:  2892charge 0 multiplicity 1
 C        -0.153242        -0.541634         0.049661
 C         1.340436        -0.094940        -0.037089
 C         2.571514        -0.996387        -0.380228
 C         3.407343         0.219923        -0.810421
 C         4.879820         0.251064        -1.082847
 O         2.654731         0.771004        -1.941471
 C         1.702225         1.185729        -0.951073
 C         2.704903         1.363864         0.195787
 O         1.820906         0.727839         1.191741
 H        -0.278267        -1.343831         0.900112
 H        -0.785275         0.303556         0.262608
 H        -0.428504        -0.949466        -0.932659
 H         2.807540        -1.521280         0.548249
 H         2.191181        -1.705562        -1.052210
 H         4.987535         1.259827        -1.530156
 H         5.764374         0.268747        -0.377671
 H         5.098844        -0.474315        -1.843061
 H         1.039786         1.923284        -1.308126
 H         2.902660         2.434943         0.616366
