19
Iteration:  1001
 C        -0.030439        -0.675653         0.114148
 C         1.300128        -0.087019        -0.065272
 C         2.482342        -0.907957        -0.456938
 C         3.403039         0.295145        -0.716380
 C         4.906298         0.126832        -0.965350
 O         2.588688         0.934315        -2.022452
 C         1.675710         1.247119        -0.997733
 C         2.674538         1.325726         0.165148
 O         1.890701         0.676715         1.158936
 H         0.080661        -1.556548         0.808532
 H        -0.847414        -0.194634         0.726374
 H        -0.558519        -0.987464        -0.750287
 H         2.732524        -1.544078         0.417942
 H         2.322056        -1.330410        -1.405548
 H         5.064888         1.070459        -1.357033
 H         5.552714         0.034109        -0.000979
 H         5.133995        -0.698453        -1.604280
 H         1.072509         2.095253        -1.335568
 H         3.180050         2.282649         0.472335
