19
Iteration:  4504charge 0 multiplicity 1
 C        -0.069454        -0.784028         0.194689
 C         1.273722        -0.059051        -0.038623
 C         2.549231        -0.918631        -0.584483
 C         3.397060         0.308162        -0.778664
 C         4.843409         0.112381        -0.953403
 O         2.603609         0.930528        -1.909075
 C         1.670685         1.242060        -0.929890
 C         2.705172         1.352670         0.140478
 O         1.881932         0.778187         1.092273
 H         0.031369        -1.802488         0.570390
 H        -0.718723        -0.190464         0.850742
 H        -0.495983        -0.916958        -0.801966
 H         2.994323        -1.626472         0.123913
 H         2.280903        -1.327724        -1.549850
 H         5.401162         0.938317        -1.434338
 H         5.300929         0.068142         0.103171
 H         5.267665        -0.777673        -1.466704
 H         0.822408         1.847265        -1.294882
 H         3.249745         2.250004         0.457445
