19
Iteration:   274charge 0 multiplicity 1
 C        -0.060452        -0.697044         0.242917
 C         1.299530        -0.133501        -0.039517
 C         2.548020        -0.965508        -0.602235
 C         3.376789         0.311560        -0.827107
 C         4.894696         0.209009        -0.877886
 O         2.638494         0.937010        -1.948106
 C         1.676560         1.228384        -1.028720
 C         2.626575         1.373185         0.133974
 O         1.859781         0.694411         1.113667
 H        -0.082899        -1.588595         0.927859
 H        -0.832183         0.011122         0.841390
 H        -0.546866        -1.059289        -0.639716
 H         3.152171        -1.604244         0.290514
 H         2.398623        -1.591228        -1.457798
 H         5.314424         1.073513        -0.346143
 H         5.406604        -0.731052        -0.287553
 H         5.217760         0.103585        -1.905719
 H         0.877616         1.883161        -1.403609
 H         3.123027         2.327702         0.398668
