19
Iteration:  3645charge 0 multiplicity 1
 C        -0.059355        -0.538693         0.174868
 C         1.303948        -0.076281        -0.053340
 C         2.472157        -0.945391        -0.562599
 C         3.417344         0.338668        -0.847477
 C         4.885618         0.277757        -0.908895
 O         2.634943         0.905345        -2.007300
 C         1.660314         1.219071        -0.954526
 C         2.661961         1.260350         0.277292
 O         1.881721         0.517455         1.116647
 H         0.190376        -1.352763         0.851438
 H        -0.722592         0.190211         0.614031
 H        -0.592226        -0.901174        -0.780402
 H         2.807379        -1.635847         0.189969
 H         2.421609        -1.576185        -1.466623
 H         5.309319         1.175216        -1.456575
 H         5.170727         0.132770         0.160895
 H         5.107458        -0.564895        -1.571440
 H         1.005566         2.085600        -1.265745
 H         3.273866         2.088071         0.558313
