19
Iteration:   564
 C        -0.048905        -0.664108         0.041585
 C         1.378592        -0.055379        -0.063183
 C         2.594253        -0.853383        -0.484566
 C         3.400407         0.328359        -0.798253
 C         4.794845         0.095158        -1.086329
 O         2.695010         0.913434        -1.924879
 C         1.609793         1.224910        -0.909800
 C         2.616937         1.348710         0.272346
 O         1.831018         0.623410         1.179732
 H         0.093514        -1.522604         0.742512
 H        -0.729376         0.233081         0.188863
 H        -0.305975        -1.136307        -0.935442
 H         2.987557        -1.368109         0.455208
 H         2.380740        -1.567323        -1.277053
 H         5.125989         1.110934        -1.346859
 H         5.367681        -0.111131        -0.125704
 H         5.083626        -0.644295        -1.859755
 H         0.773852         1.919236        -1.228010
 H         2.998362         2.242519         0.739837
