19
Iteration:  3379charge 0 multiplicity 1
 C        -0.193430        -0.642613         0.014406
 C         1.302241        -0.016814        -0.081293
 C         2.621799        -0.872779        -0.392919
 C         3.408715         0.276287        -0.788606
 C         4.946970         0.225035        -1.089195
 O         2.548359         0.831240        -1.957456
 C         1.704129         1.200757        -0.875377
 C         2.688182         1.394610         0.226520
 O         1.861703         0.601479         1.199923
 H        -0.135344        -1.424748         0.792465
 H        -0.882416         0.133539         0.366453
 H        -0.341872        -0.884773        -0.996836
 H         2.891689        -1.570377         0.447939
 H         2.448507        -1.576280        -1.211066
 H         5.524251         1.059567        -0.772718
 H         5.510417        -0.756575        -0.705673
 H         4.928600         0.009181        -2.217735
 H         0.935836         1.843305        -1.229622
 H         3.156002         2.305134         0.579666
