19
Iteration:  1800
 C         0.003399        -0.682333         0.288356
 C         1.303412        -0.104249        -0.118772
 C         2.522093        -0.963199        -0.550238
 C         3.363145         0.246641        -0.809678
 C         4.871660         0.182062        -0.800171
 O         2.626779         0.974866        -2.021015
 C         1.626629         1.314737        -0.988418
 C         2.696975         1.292573         0.136090
 O         1.855073         0.692244         1.055615
 H         0.205310        -1.282900         1.184702
 H        -0.590266         0.031599         0.840946
 H        -0.617035        -1.106578        -0.546485
 H         2.766349        -1.672161         0.175272
 H         2.126599        -1.535759        -1.549774
 H         5.319097         1.189155        -0.989875
 H         5.339354        -0.293164        -0.004321
 H         5.273061        -0.371003        -1.676607
 H         0.679221         1.812460        -1.252229
 H         3.482294         1.961429         0.459224
