19
Iteration:  4703charge 0 multiplicity 1
 C        -0.093859        -0.579501         0.040257
 C         1.350399        -0.014682        -0.013745
 C         2.500772        -0.975907        -0.511086
 C         3.432008         0.271077        -0.820802
 C         4.879793         0.284263        -0.976840
 O         2.597763         0.836056        -1.864867
 C         1.626435         1.174987        -0.923322
 C         2.725389         1.319293         0.206269
 O         1.874172         0.622518         1.124814
 H        -0.162292        -1.594733         0.321141
 H        -0.583180         0.128390         0.803645
 H        -0.609854        -0.284415        -0.932981
 H         2.842970        -1.591368         0.314370
 H         2.245133        -1.586557        -1.402117
 H         5.044806         1.022613        -1.862899
 H         5.543865         0.594521        -0.164443
 H         5.298507        -0.692492        -1.323541
 H         0.714260         1.685247        -1.406031
 H         3.406499         2.058673         0.580838
