19
Iteration:  2951charge 0 multiplicity 1
 C        -0.037064        -0.651976         0.157551
 C         1.335651        -0.061625         0.031861
 C         2.509080        -0.890094        -0.444125
 C         3.440132         0.346770        -0.826135
 C         4.891476         0.062982        -0.976751
 O         2.649199         0.858532        -1.971222
 C         1.594120         1.157913        -1.021150
 C         2.708961         1.425763         0.149226
 O         1.833619         0.738805         1.177499
 H        -0.275655        -1.194316         1.051171
 H        -0.926113         0.048580        -0.007141
 H        -0.160426        -1.465439        -0.632952
 H         2.909066        -1.733679         0.193281
 H         2.239064        -1.357119        -1.471631
 H         5.368434         1.057733        -0.880993
 H         5.134317        -0.667644        -0.257262
 H         4.973218        -0.184508        -2.025710
 H         0.776621         1.807511        -1.523596
 H         3.274204         2.296156         0.503641
