19
Iteration:  4566charge 0 multiplicity 1
 C        -0.106705        -0.516100         0.075845
 C         1.331652        -0.116844        -0.031562
 C         2.529968        -0.990577        -0.463536
 C         3.455954         0.306055        -0.722923
 C         4.939262         0.336171        -1.122435
 O         2.618549         0.775842        -1.953326
 C         1.689424         1.156063        -0.932090
 C         2.682289         1.337415         0.210282
 O         1.791082         0.651499         1.201835
 H        -0.342689        -0.910300         1.171831
 H        -0.780199         0.267281        -0.098123
 H        -0.343699        -1.272532        -0.667812
 H         2.973198        -1.660639         0.291493
 H         2.358055        -1.599449        -1.370480
 H         5.417058         1.201140        -0.801977
 H         5.404718        -0.574348        -0.744532
 H         4.845730         0.224177        -2.203957
 H         0.910061         1.839116        -1.081146
 H         3.085023         2.332108         0.461117
