19
Iteration:   916
 C        -0.110855        -0.651427         0.140247
 C         1.281511        -0.104382        -0.021160
 C         2.531990        -0.948213        -0.445323
 C         3.385989         0.278497        -0.803842
 C         4.820521         0.229166        -0.999915
 O         2.687398         0.904277        -2.039001
 C         1.703029         1.266296        -0.939685
 C         2.692223         1.352437         0.171238
 O         1.861569         0.629444         1.171915
 H        -0.201734        -1.460420         0.888020
 H        -0.841713         0.231642         0.279250
 H        -0.293457        -1.123043        -0.813645
 H         2.835320        -1.473929         0.497345
 H         2.257318        -1.784141        -1.166931
 H         5.290235         1.261321        -1.103151
 H         5.393166        -0.229833        -0.209129
 H         5.097579        -0.278020        -1.952407
 H         0.988341         1.971866        -1.365697
 H         3.381482         2.112662         0.689283
