19
Iteration:  1236charge 0 multiplicity 1
 C        -0.083971        -0.611493         0.083151
 C         1.332477        -0.063005        -0.006959
 C         2.448541        -0.955051        -0.405048
 C         3.466939         0.290286        -0.778231
 C         4.950579         0.250230        -1.082068
 O         2.624378         0.776427        -1.920860
 C         1.674111         1.232366        -0.916324
 C         2.668763         1.380142         0.150891
 O         1.831530         0.677326         1.119594
 H        -0.273783        -1.113710         1.088938
 H        -0.809118         0.152688        -0.061393
 H        -0.163799        -1.391340        -0.704925
 H         2.689978        -1.574033         0.524868
 H         2.280035        -1.546371        -1.250398
 H         5.444346         1.325815        -1.070526
 H         5.569443        -0.395701        -0.483516
 H         5.068313        -0.188405        -2.168073
 H         0.665604         1.767168        -1.151701
 H         3.089125         2.256624         0.643940
