19
Iteration:  2626
 C        -0.077750        -0.602381         0.226643
 C         1.265987        -0.080120        -0.114292
 C         2.476167        -0.884067        -0.509456
 C         3.389171         0.318793        -0.899694
 C         4.912671         0.163921        -0.878552
 O         2.625402         0.817600        -1.966343
 C         1.640214         1.231156        -0.952287
 C         2.686314         1.301135         0.130492
 O         1.959870         0.685625         1.123481
 H         0.026425        -1.629063         0.643203
 H        -0.727047         0.113838         0.867308
 H        -0.725580        -0.643249        -0.732196
 H         2.710650        -1.460783         0.335108
 H         2.404894        -1.742166        -1.256970
 H         5.195088         1.204055        -0.907550
 H         5.111571        -0.267110         0.053604
 H         5.493258        -0.415320        -1.668353
 H         0.814474         2.021517        -1.130303
 H         3.165147         2.219914         0.330743
