19
Iteration:  1931
 C        -0.025654        -0.663990         0.128650
 C         1.277074        -0.048138        -0.102224
 C         2.509611        -0.931135        -0.504383
 C         3.405872         0.263909        -0.829850
 C         4.922862         0.085602        -1.039595
 O         2.615963         0.946615        -1.942437
 C         1.650693         1.270875        -0.932588
 C         2.590666         1.337444         0.263715
 O         1.896075         0.689514         1.184232
 H         0.164833        -1.672728         0.636756
 H        -0.704128         0.050583         0.714268
 H        -0.427816        -0.923948        -0.924187
 H         2.897288        -1.574988         0.212390
 H         2.339915        -1.490725        -1.516017
 H         5.406013         0.992859        -1.553862
 H         5.389378         0.129835        -0.065828
 H         5.215749        -0.904110        -1.570068
 H         0.818039         2.005079        -1.111459
 H         3.075080         2.275345         0.596756
