19
Iteration:  4617charge 0 multiplicity 1
 C        -0.004282        -0.707901         0.158084
 C         1.244689        -0.001420        -0.092741
 C         2.604338        -0.866359        -0.501520
 C         3.430110         0.379861        -0.778945
 C         4.891260         0.105475        -1.015961
 O         2.578871         0.835814        -1.912146
 C         1.636860         1.286869        -0.946437
 C         2.679683         1.349128         0.226501
 O         1.822657         0.649274         1.080492
 H        -0.052695        -1.141406         1.115658
 H        -0.953286        -0.072677         0.206415
 H        -0.168497        -1.418844        -0.681385
 H         2.797981        -1.605249         0.272046
 H         2.566385        -1.415000        -1.466627
 H         5.489618         1.069558        -0.846361
 H         5.095810        -0.561716        -0.175547
 H         5.051188        -0.398844        -1.999867
 H         0.929662         2.041268        -1.323524
 H         3.366666         2.033988         0.706223
