19
Iteration:  1413
 C        -0.065101        -0.618936         0.135687
 C         1.273662        -0.041807        -0.010942
 C         2.534992        -0.894623        -0.478851
 C         3.375783         0.303741        -0.796899
 C         4.893372         0.241425        -1.051720
 O         2.689211         0.728468        -1.921750
 C         1.630782         1.214545        -0.887235
 C         2.733139         1.289335         0.151594
 O         1.794774         0.727935         1.120525
 H        -0.136918        -1.341667         0.975184
 H        -0.987454         0.081775         0.094176
 H        -0.172233        -1.206024        -0.779551
 H         2.819429        -1.405646         0.497043
 H         2.523316        -1.522457        -1.265339
 H         5.196015         1.272262        -1.194856
 H         5.614173        -0.129769        -0.192966
 H         5.088644        -0.276183        -2.044076
 H         0.912472         1.932744        -1.372773
 H         3.219973         2.200694         0.456431
