19
Iteration:  3120
 C         0.009591        -0.692154         0.203349
 C         1.257198        -0.081199        -0.120666
 C         2.509994        -0.849939        -0.519397
 C         3.372748         0.271203        -0.701954
 C         4.895235         0.101679        -1.038755
 O         2.649956         0.868861        -1.946816
 C         1.728416         1.283781        -0.979542
 C         2.636511         1.387669         0.189899
 O         1.814288         0.720542         1.106322
 H         0.067338        -1.280733         1.198768
 H        -0.739228         0.033743         0.307176
 H        -0.392328        -1.460044        -0.444836
 H         2.737202        -1.530787         0.371099
 H         2.422428        -1.561611        -1.346561
 H         5.434928         1.049081        -1.014116
 H         5.366262        -0.640285        -0.264277
 H         5.013166        -0.300722        -2.091584
 H         0.922956         1.834004        -1.350393
 H         3.164075         2.217508         0.773303
