19
Iteration:  3460
 C        -0.035290        -0.608521         0.180725
 C         1.289874        -0.030144        -0.026307
 C         2.517813        -0.969119        -0.584305
 C         3.436220         0.298487        -0.754604
 C         4.902153         0.114614        -1.005318
 O         2.656046         1.007194        -1.946699
 C         1.612711         1.226725        -0.928245
 C         2.666196         1.308081         0.187531
 O         1.786129         0.586130         1.136683
 H         0.162902        -1.442951         0.826821
 H        -0.749117         0.081091         0.501892
 H        -0.397160        -1.045585        -0.768200
 H         2.978487        -1.646091         0.097501
 H         2.476522        -1.350223        -1.633773
 H         5.246027         0.941401        -1.656090
 H         5.406722         0.141003        -0.098721
 H         5.334640        -0.703082        -1.516290
 H         0.902810         2.076766        -1.064864
 H         3.223801         2.209797         0.531066
