19
Iteration:  2566charge 0 multiplicity 1
 C        -0.138512        -0.586970        -0.031905
 C         1.297596        -0.035893        -0.021471
 C         2.553828        -0.985812        -0.331078
 C         3.490367         0.301819        -0.732204
 C         4.920482         0.087621        -1.241877
 O         2.618114         0.888127        -1.900138
 C         1.619555         1.197779        -0.910661
 C         2.702719         1.409656         0.247710
 O         1.811039         0.675064         1.178662
 H        -0.232857        -1.066232         0.963054
 H        -0.951562         0.073383        -0.133849
 H        -0.040714        -1.407593        -0.674932
 H         2.770561        -1.572733         0.610419
 H         2.470222        -1.443260        -1.247641
 H         5.303384         1.119772        -1.491335
 H         5.725427        -0.129466        -0.447483
 H         4.954749        -0.493123        -2.132580
 H         0.774661         1.784581        -1.106816
 H         3.346862         2.302210         0.558991
