19
Iteration:  2661charge 0 multiplicity 1
 C         0.016329        -0.657013         0.320259
 C         1.304407        -0.109485        -0.111129
 C         2.446371        -0.861670        -0.574225
 C         3.369274         0.333139        -0.789957
 C         4.856112         0.025034        -0.841795
 O         2.671675         0.895820        -1.971777
 C         1.645804         1.207431        -1.020084
 C         2.625655         1.393154         0.090924
 O         1.919104         0.719235         1.081616
 H         0.055969        -1.700946         0.609265
 H        -0.549929        -0.086539         1.139024
 H        -0.601715        -0.712907        -0.600461
 H         2.903436        -1.507267         0.138076
 H         2.195469        -1.214342        -1.635506
 H         5.335785         0.947796        -1.076163
 H         5.171277        -0.080710         0.202544
 H         5.263278        -0.758300        -1.469910
 H         0.847843         1.881466        -1.376102
 H         3.103500         2.262528         0.506922
