19
Iteration:  3056charge 0 multiplicity 1
 C        -0.092408        -0.497764        -0.030980
 C         1.352146        -0.065672        -0.039518
 C         2.572101        -0.961580        -0.358840
 C         3.412933         0.248412        -0.846698
 C         4.847063         0.251209        -1.099274
 O         2.602962         0.714754        -1.895691
 C         1.646052         1.277931        -0.872852
 C         2.667046         1.386590         0.149437
 O         1.856739         0.602524         1.171810
 H        -0.186494        -1.410722         0.664626
 H        -0.593004         0.230996         0.496735
 H        -0.489708        -0.667847        -1.030695
 H         3.039547        -1.273320         0.585574
 H         2.659444        -1.618511        -1.152295
 H         5.270950         1.092694        -1.790053
 H         5.356667         0.221786        -0.041489
 H         5.075096        -0.803881        -1.329917
 H         0.817590         1.895464        -1.053401
 H         3.175534         2.414290         0.507315
