19
Iteration:  2102
 C        -0.030800        -0.654488         0.092298
 C         1.353925        -0.016621        -0.085255
 C         2.499008        -0.930943        -0.473238
 C         3.399398         0.299883        -0.794982
 C         4.820505         0.129610        -1.039407
 O         2.579278         0.984342        -1.947990
 C         1.655753         1.284724        -0.898277
 C         2.733891         1.256807         0.179214
 O         1.860665         0.602127         1.157731
 H         0.047345        -1.605839         0.605596
 H        -0.661616        -0.092871         0.743112
 H        -0.505174        -0.774598        -0.976175
 H         2.985228        -1.514210         0.425476
 H         2.366403        -1.601600        -1.381984
 H         5.404829         1.010228        -1.481338
 H         5.270381        -0.016762        -0.066107
 H         5.035443        -0.723154        -1.600366
 H         1.034225         2.137523        -0.893170
 H         3.143458         2.208462         0.592716
