19
Iteration:     9charge 0 multiplicity 1
 C        -0.075740        -0.646346         0.002855
 C         1.298140        -0.139848        -0.075438
 C         2.516379        -0.954030        -0.485989
 C         3.385671         0.336643        -0.829758
 C         4.840993         0.253512        -1.046744
 O         2.695732         0.940005        -1.867736
 C         1.688083         1.286909        -0.859571
 C         2.714409         1.369487         0.199263
 O         1.786735         0.528746         1.184941
 H         0.043395        -1.395877         0.830748
 H        -0.582556         0.145682         0.458247
 H        -0.551460        -1.234824        -0.955591
 H         2.900431        -1.587479         0.310444
 H         2.356279        -1.437789        -1.577560
 H         5.241450        -0.401109        -0.144768
 H         4.979545        -0.221941        -1.948794
 H         5.435503         1.279244        -1.108973
 H         0.937947         2.040865        -1.206519
 H         3.444587         2.072250         0.507159
