19
Iteration:  2763
 C        -0.101219        -0.543742         0.035579
 C         1.295088        -0.049809        -0.047349
 C         2.632671        -0.967706        -0.250792
 C         3.346078         0.233820        -0.820459
 C         4.834154         0.196796        -1.073470
 O         2.592145         0.872222        -1.995820
 C         1.691563         1.159858        -0.936569
 C         2.682596         1.323724         0.160620
 O         1.880840         0.671387         1.144817
 H        -0.338207        -0.967185         1.060287
 H        -0.757649         0.267194        -0.165521
 H        -0.230125        -1.336953        -0.697976
 H         2.957506        -1.380906         0.804813
 H         2.550190        -1.668695        -1.071652
 H         5.265133         1.248596        -1.109584
 H         5.336819        -0.422497        -0.278477
 H         5.251034        -0.178255        -1.957522
 H         1.039061         1.977302        -1.194818
 H         3.126985         2.359927         0.503247
