19
Iteration:  1932charge 0 multiplicity 1
 C        -0.026807        -0.664475         0.126970
 C         1.275852        -0.045188        -0.105118
 C         2.505985        -0.932148        -0.507452
 C         3.410099         0.266840        -0.833420
 C         4.939947         0.085391        -1.031261
 O         2.610861         0.947964        -1.947035
 C         1.645720         1.269348        -0.925793
 C         2.593293         1.343860         0.257478
 O         1.893045         0.681955         1.179397
 H         0.157135        -1.661701         0.687374
 H        -0.701257         0.048865         0.750907
 H        -0.446267        -0.915039        -0.887404
 H         2.897243        -1.625117         0.222265
 H         2.349834        -1.496012        -1.513727
 H         5.385803         0.963551        -1.522620
 H         5.406371         0.134178        -0.059226
 H         5.217325        -0.900967        -1.572435
 H         0.807180         2.040751        -1.088192
 H         3.075574         2.289298         0.579202
