19
Iteration:  3722
 C        -0.089481        -0.746424         0.033830
 C         1.337517        -0.026012        -0.043697
 C         2.534726        -1.000027        -0.462723
 C         3.422947         0.309568        -0.781293
 C         4.930651         0.098086        -1.054676
 O         2.570276         0.975255        -1.910111
 C         1.681806         1.314515        -0.873825
 C         2.710448         1.368811         0.216804
 O         1.826379         0.671290         1.132278
 H        -0.107505        -1.528347         0.756400
 H        -0.835142        -0.014406         0.318192
 H        -0.135021        -1.171158        -0.987905
 H         2.951668        -1.446276         0.400037
 H         2.418053        -1.546387        -1.355331
 H         5.274243         1.055423        -1.259628
 H         5.130137        -0.467225        -0.204531
 H         4.904812        -0.445715        -1.964506
 H         0.783681         1.968245        -1.043961
 H         3.267638         2.270649         0.467488
