19
Iteration:  3283charge 0 multiplicity 1
 C        -0.020897        -0.741076         0.106257
 C         1.324273        -0.035436        -0.124862
 C         2.510802        -0.862830        -0.444788
 C         3.359728         0.303823        -0.830758
 C         4.791057         0.113128        -1.008838
 O         2.665082         0.976587        -1.945352
 C         1.608534         1.273267        -0.939254
 C         2.672583         1.299354         0.156963
 O         1.889376         0.654108         1.213968
 H         0.016755        -1.526874         1.041329
 H        -0.695993         0.109907         0.253508
 H        -0.100765        -1.224655        -0.903598
 H         3.068345        -1.505805         0.417882
 H         2.387003        -1.583269        -1.294395
 H         5.263655         0.842415        -1.584253
 H         5.228320         0.153703         0.090215
 H         4.948049        -0.916572        -1.462660
 H         0.981138         2.094117        -1.135803
 H         3.417892         2.105535         0.393063
