19
Iteration:   985
 C        -0.095438        -0.687005         0.226305
 C         1.300760        -0.039376        -0.114212
 C         2.447002        -0.953863        -0.491931
 C         3.389302         0.277175        -0.859712
 C         4.884518         0.205487        -0.906975
 O         2.707104         0.944056        -1.933219
 C         1.601143         1.226924        -0.942117
 C         2.670349         1.383336         0.121247
 O         1.921872         0.625111         1.084107
 H         0.032622        -1.640118         0.701940
 H        -0.580262         0.043682         0.821352
 H        -0.548057        -0.829806        -0.812106
 H         2.781673        -1.506912         0.392508
 H         2.309710        -1.799528        -1.270575
 H         5.498269         1.034273        -1.491888
 H         5.237578         0.156876         0.124772
 H         5.158470        -0.790945        -1.394014
 H         0.710833         1.866810        -1.131143
 H         3.307998         2.246681         0.338430
