19
Iteration:  1733charge 0 multiplicity 1
 C        -0.034755        -0.626433        -0.003017
 C         1.314657        -0.053507        -0.010858
 C         2.550488        -0.970849        -0.321665
 C         3.405509         0.317711        -0.890571
 C         4.907049         0.201626        -1.164466
 O         2.684112         0.831208        -1.876057
 C         1.618738         1.237227        -0.879970
 C         2.666129         1.349754         0.191299
 O         1.762862         0.689606         1.184294
 H        -0.124094        -1.425236         0.722756
 H        -0.749184         0.089487         0.317247
 H        -0.160011        -1.012388        -1.106207
 H         2.978186        -1.330491         0.627099
 H         2.330295        -1.885215        -1.110780
 H         5.126952         0.972017        -1.968656
 H         5.448198         0.241960        -0.253412
 H         5.117916        -0.760818        -1.571672
 H         0.853988         1.930202        -1.034329
 H         3.232719         2.218417         0.492453
