19
Iteration:   319
 C         0.004658        -0.638009         0.188961
 C         1.293091        -0.095049        -0.121958
 C         2.586829        -0.969542        -0.500663
 C         3.365750         0.243855        -0.800603
 C         4.825270         0.292071        -0.920000
 O         2.669415         0.848081        -1.946041
 C         1.611993         1.284667        -1.045477
 C         2.620290         1.368584         0.208649
 O         1.885133         0.639217         1.109165
 H         0.123422        -1.366072         1.027984
 H        -0.717958         0.194574         0.529774
 H        -0.365231        -1.171926        -0.702021
 H         2.738717        -1.644192         0.418306
 H         2.311593        -1.559181        -1.383210
 H         5.367995         1.131479        -0.434735
 H         5.227113        -0.738992        -0.543598
 H         5.055203         0.268376        -1.983477
 H         0.782475         1.970442        -1.337131
 H         3.253221         2.115447         0.775550
