19
Iteration:  2799
 C        -0.060915        -0.703484         0.321097
 C         1.253009        -0.006340        -0.100755
 C         2.491035        -0.921258        -0.525192
 C         3.461014         0.294220        -0.827489
 C         4.900389         0.135292        -0.998447
 O         2.730071         0.782381        -1.902809
 C         1.673646         1.248468        -1.046153
 C         2.613826         1.411603         0.192952
 O         1.822992         0.743435         1.095518
 H         0.163734        -1.344881         1.097685
 H        -0.830882        -0.026656         0.695919
 H        -0.517799        -1.255499        -0.530015
 H         2.698479        -1.818590         0.074427
 H         2.356941        -1.336047        -1.551257
 H         5.343428         1.148936        -0.968204
 H         5.195380        -0.284523        -0.052656
 H         5.092620        -0.495289        -1.974226
 H         0.995725         2.038902        -1.530602
 H         3.015041         2.296746         0.552083
