19
Iteration:  1383
 C        -0.088638        -0.558360         0.017519
 C         1.332595        -0.144636         0.008008
 C         2.514893        -0.984302        -0.318254
 C         3.416340         0.265809        -0.750642
 C         4.885432         0.216049        -1.121817
 O         2.608269         0.847569        -1.939137
 C         1.671286         1.202436        -0.931852
 C         2.606410         1.377626         0.195229
 O         1.897686         0.678469         1.135050
 H        -0.320339        -1.310111         0.734476
 H        -0.668166         0.389119         0.103205
 H        -0.026413        -1.025822        -0.971136
 H         2.793050        -1.353712         0.679089
 H         2.517537        -1.782601        -1.102210
 H         5.043885         1.113394        -1.649572
 H         5.668722         0.288864        -0.282179
 H         5.261541        -0.532153        -1.765206
 H         0.920365         1.743451        -1.429088
 H         2.995024         2.388662         0.465691
