19
Iteration:  3993charge 0 multiplicity 1
 C        -0.165923        -0.662284         0.304304
 C         1.292939        -0.129640        -0.088743
 C         2.540070        -0.959797        -0.581787
 C         3.375559         0.261971        -0.861264
 C         4.848903         0.242785        -0.937953
 O         2.760991         0.927722        -1.986772
 C         1.696005         1.206309        -1.031828
 C         2.674302         1.367164         0.184016
 O         1.861441         0.678635         1.173793
 H         0.052463        -1.454394         0.970840
 H        -0.830431         0.070761         0.743605
 H        -0.482367        -0.901193        -0.727221
 H         2.796344        -1.796178         0.152144
 H         2.275081        -1.491698        -1.574857
 H         5.260883         1.222743        -0.862386
 H         5.139104        -0.367317        -0.027307
 H         5.204379        -0.185857        -1.849055
 H         0.747373         1.824893        -1.226138
 H         3.084624         2.295743         0.652610
