19
Iteration:  4894
 C        -0.069031        -0.529276         0.052487
 C         1.258919        -0.089056        -0.092699
 C         2.594787        -0.936585        -0.478527
 C         3.427723         0.243875        -0.784651
 C         4.999161         0.280180        -1.034102
 O         2.526751         0.868601        -1.970995
 C         1.624020         1.195902        -0.884814
 C         2.680650         1.267789         0.254461
 O         1.826138         0.626643         1.174771
 H        -0.183060        -1.581101         0.397882
 H        -0.770969         0.060238         0.651592
 H        -0.541979        -0.510583        -0.899853
 H         2.881557        -1.575830         0.400647
 H         2.300448        -1.555226        -1.335991
 H         5.370312         1.130488        -1.694435
 H         5.598310         0.325563        -0.073181
 H         5.337996        -0.700759        -1.461468
 H         1.112573         2.073190        -1.361709
 H         3.389688         2.048310         0.821657
