19
Iteration:   818charge 0 multiplicity 1
 C        -0.052144        -0.645073         0.158242
 C         1.338870        -0.071611        -0.012271
 C         2.394916        -0.905144        -0.483878
 C         3.392089         0.333522        -0.841199
 C         4.887978         0.218418        -0.940636
 O         2.653027         0.863681        -2.025773
 C         1.684260         1.265706        -0.966251
 C         2.679302         1.291041         0.187513
 O         1.873780         0.621307         1.091956
 H        -0.004559        -1.495696         0.787117
 H        -0.761934         0.000762         0.792850
 H        -0.523700        -1.072662        -0.669431
 H         2.625875        -1.704963         0.238284
 H         2.413624        -1.443557        -1.420219
 H         5.407861         1.219272        -1.120718
 H         5.341162         0.028081         0.019337
 H         5.376275        -0.536864        -1.573370
 H         1.025303         2.118169        -1.103763
 H         3.109788         2.120723         0.852579
