19
Iteration:  3496charge 0 multiplicity 1
 C        -0.115969        -0.553124         0.258991
 C         1.282400        -0.022276        -0.085846
 C         2.461155        -0.964773        -0.598076
 C         3.391446         0.308746        -0.863365
 C         4.933268         0.261423        -0.836707
 O         2.621504         0.903668        -1.995383
 C         1.666457         1.290904        -0.971715
 C         2.632664         1.309963         0.146254
 O         1.992025         0.442095         1.117292
 H        -0.124161        -1.391350         0.942397
 H        -0.970188         0.103988         0.668876
 H        -0.389758        -0.973945        -0.718195
 H         2.787269        -1.752039         0.133879
 H         2.420344        -1.463383        -1.574544
 H         5.131098         1.262797        -1.126924
 H         5.157944         0.344993         0.147313
 H         5.310310        -0.564549        -1.352520
 H         0.884873         2.101684        -1.149755
 H         3.305373         2.059096         0.567009
