19
Iteration:  3229charge 0 multiplicity 1
 C        -0.111896        -0.589749         0.027188
 C         1.329333        -0.062719        -0.052121
 C         2.567905        -0.973349        -0.327318
 C         3.416664         0.294409        -0.811402
 C         4.804242         0.221291        -1.193881
 O         2.700816         0.886866        -1.887378
 C         1.672126         1.164402        -0.881762
 C         2.736400         1.348879         0.269011
 O         1.780440         0.648668         1.136650
 H        -0.206184        -1.628282         0.562555
 H        -0.693792         0.271264         0.302174
 H        -0.268285        -0.759600        -1.064586
 H         2.982909        -1.363005         0.705805
 H         2.438949        -1.670393        -1.165581
 H         4.925324         0.879634        -1.957510
 H         5.550894         0.353385        -0.359578
 H         4.911966        -0.764032        -1.671899
 H         0.898401         1.788135        -1.256668
 H         3.126037         2.321147         0.657335
