19
Iteration:  4238charge 0 multiplicity 1
 C        -0.118851        -0.617096         0.095105
 C         1.344515        -0.106648        -0.044145
 C         2.595283        -0.898598        -0.432798
 C         3.440646         0.306120        -0.830147
 C         4.910884         0.222649        -1.034511
 O         2.599123         0.837567        -1.952564
 C         1.675566         1.183625        -0.844356
 C         2.734225         1.321602         0.192928
 O         1.749935         0.682212         1.107900
 H        -0.362097        -1.319642         0.931073
 H        -0.726071         0.298354         0.013088
 H        -0.276553        -1.240868        -0.821356
 H         3.107902        -1.449080         0.361426
 H         2.409462        -1.584610        -1.298791
 H         5.020496         1.071999        -1.824829
 H         5.595967         0.386245        -0.239270
 H         5.162233        -0.713044        -1.545563
 H         0.721656         1.846548        -0.927368
 H         3.115767         2.281254         0.732464
