19
Iteration:    11charge 0 multiplicity 1
 C        -0.079387        -0.653380        -0.012590
 C         1.311358        -0.151913        -0.078932
 C         2.518367        -0.961622        -0.474501
 C         3.381591         0.337030        -0.828039
 C         4.831629         0.265285        -1.058176
 O         2.705824         0.936280        -1.872214
 C         1.690060         1.294580        -0.851357
 C         2.734468         1.378965         0.188313
 O         1.763351         0.530426         1.206228
 H         0.031731        -1.370820         0.826393
 H        -0.600410         0.164323         0.431477
 H        -0.566400        -1.199505        -0.901229
 H         2.916284        -1.620640         0.301938
 H         2.366785        -1.460303        -1.502475
 H         5.212586        -0.436403        -0.241257
 H         4.961130        -0.175587        -2.014938
 H         5.417769         1.251299        -1.051621
 H         0.958415         2.035410        -1.188878
 H         3.478105         2.072508         0.475291
