19
Iteration:  1951
 C        -0.112110        -0.644719         0.291920
 C         1.300262        -0.086951        -0.070507
 C         2.485751        -0.867896        -0.595436
 C         3.443008         0.352824        -0.796236
 C         4.951157         0.154727        -0.890162
 O         2.564120         0.948446        -1.950846
 C         1.636955         1.265236        -0.905546
 C         2.805548         1.373164         0.056080
 O         1.821412         0.498587         1.067071
 H         0.013484        -1.542223         0.865623
 H        -0.600900         0.212487         0.691125
 H        -0.698341        -1.041602        -0.638395
 H         2.744070        -1.422645         0.223470
 H         2.273237        -1.419728        -1.560649
 H         5.642027         1.037939        -1.347144
 H         5.355449        -0.061769         0.097579
 H         5.169873        -0.779796        -1.482504
 H         0.844729         1.903001        -1.213723
 H         3.300515         2.240746         0.508867
