19
Iteration:  1330
 C         0.001606        -0.679891         0.159149
 C         1.306667        -0.023153        -0.005328
 C         2.465299        -0.931497        -0.419655
 C         3.396632         0.228229        -0.800901
 C         4.908670         0.159364        -0.963412
 O         2.687268         0.936556        -1.911173
 C         1.595623         1.225572        -0.993446
 C         2.608448         1.380345         0.062452
 O         1.879673         0.684532         1.095864
 H         0.284554        -1.577887         0.716152
 H        -0.687492        -0.111161         0.859842
 H        -0.518238        -0.954659        -0.840003
 H         2.664764        -1.643211         0.410923
 H         2.139295        -1.578566        -1.414306
 H         5.328310         1.050382        -1.504597
 H         5.369786         0.088751         0.079574
 H         5.200724        -0.737756        -1.482677
 H         0.829934         1.789658        -1.463584
 H         3.265334         2.271303         0.306884
