19
Iteration:   716charge 0 multiplicity 1
 C        -0.035458        -0.704559         0.013141
 C         1.323214         0.046747        -0.001581
 C         2.534221        -0.852246        -0.384909
 C         3.418850         0.276345        -0.728391
 C         4.835489         0.142472        -1.160501
 O         2.671669         0.887418        -1.893623
 C         1.640240         1.245807        -0.901500
 C         2.695853         1.267283         0.193736
 O         1.771595         0.671908         1.182776
 H        -0.150428        -1.476729         0.812136
 H        -1.006729        -0.214436        -0.063568
 H         0.087119        -1.101542        -1.016644
 H         3.065248        -1.527347         0.383343
 H         2.329547        -1.379860        -1.339398
 H         5.249496         1.094455        -1.307826
 H         5.598485        -0.415082        -0.466016
 H         4.949886        -0.237486        -2.165895
 H         0.915363         2.000910        -1.278310
 H         3.259470         2.085041         0.557835
