19
Iteration:  4214
 C        -0.009460        -0.728802         0.165801
 C         1.328226        -0.035679        -0.107462
 C         2.432142        -0.946657        -0.474592
 C         3.396631         0.308320        -0.733946
 C         4.893125         0.220819        -1.059019
 O         2.684569         0.839977        -1.884242
 C         1.685225         1.287578        -1.031449
 C         2.574402         1.413224         0.184590
 O         1.873798         0.648000         1.164427
 H         0.010557        -1.357980         1.003298
 H        -0.808738         0.068822         0.196208
 H        -0.169403        -1.475901        -0.635156
 H         2.695640        -1.637756         0.385355
 H         2.323335        -1.528554        -1.416487
 H         5.293395         1.106605        -1.640093
 H         5.470662        -0.014063        -0.199517
 H         4.994123        -0.722791        -1.624344
 H         0.904934         2.038771        -1.407285
 H         3.091868         2.328023         0.621708
