19
Iteration:  4583charge 0 multiplicity 1
 C        -0.088571        -0.583131         0.097379
 C         1.300805        -0.049077         0.032054
 C         2.540122        -0.966785        -0.385467
 C         3.351681         0.207340        -0.889639
 C         4.928464         0.269174        -1.138359
 O         2.695074         0.905348        -1.867547
 C         1.612913         1.144863        -0.955183
 C         2.631700         1.323109         0.212184
 O         1.873472         0.657363         1.140152
 H        -0.314842        -0.927733         1.034907
 H        -0.681077         0.306956        -0.364638
 H        -0.110580        -1.402467        -0.664671
 H         2.780937        -1.545672         0.499604
 H         2.216085        -1.628934        -1.208430
 H         5.191778         1.299961        -0.580347
 H         5.487892        -0.493154        -0.571388
 H         5.243440         0.394245        -2.192539
 H         0.814219         1.645865        -1.611113
 H         3.293121         2.035005         0.716480
