19
Iteration:   211
 C        -0.062468        -0.678532        -0.025540
 C         1.303928        -0.150413         0.048208
 C         2.518077        -0.921885        -0.367284
 C         3.403281         0.337748        -0.791167
 C         4.890807         0.229904        -1.157109
 O         2.659385         0.906923        -1.907844
 C         1.687631         1.209027        -0.905216
 C         2.687620         1.278866         0.217609
 O         1.789517         0.724257         1.161982
 H        -0.070039        -1.398176         0.788344
 H        -0.887273         0.077337         0.040255
 H        -0.057507        -1.179915        -0.953258
 H         3.009087        -1.512660         0.399587
 H         2.353635        -1.606149        -1.209920
 H         5.147829         0.925560        -1.938223
 H         5.620007         0.352907        -0.291505
 H         4.969595        -0.748402        -1.543936
 H         0.859511         1.925660        -1.155334
 H         3.066875         2.246988         0.660501
