19
Iteration:  1653
 C        -0.114431        -0.706526         0.278982
 C         1.275774        -0.139747        -0.036761
 C         2.575340        -0.957709        -0.474348
 C         3.450235         0.338402        -0.791203
 C         4.902800         0.144763        -0.848867
 O         2.625673         0.964287        -2.037839
 C         1.595874         1.301005        -1.004835
 C         2.639832         1.320940         0.046569
 O         1.899786         0.673084         1.056023
 H         0.069711        -1.364660         1.145753
 H        -0.669969         0.227841         0.640566
 H        -0.632460        -1.109651        -0.576846
 H         2.895572        -1.761001         0.381954
 H         2.512759        -1.463106        -1.383208
 H         5.432553         1.021237        -0.620276
 H         5.238673        -0.586666        -0.040130
 H         5.192360        -0.217624        -1.816551
 H         0.764220         2.010446        -1.173359
 H         3.225836         2.270788         0.196182
