19
Iteration:  3039
 C        -0.132088        -0.555362         0.117213
 C         1.317415        -0.076371        -0.021014
 C         2.518742        -0.920267        -0.409335
 C         3.447414         0.293043        -0.734721
 C         4.884038         0.212821        -1.006486
 O         2.604353         0.841941        -1.980798
 C         1.667952         1.108373        -0.994962
 C         2.657540         1.338953         0.185155
 O         1.900492         0.665314         1.134807
 H        -0.174140        -1.534257         0.551632
 H        -0.745757         0.279509         0.680693
 H        -0.356968        -0.522081        -0.981738
 H         2.759970        -1.590485         0.424272
 H         2.232055        -1.545078        -1.351731
 H         5.180089         1.020790        -1.665002
 H         5.567354         0.471142        -0.263711
 H         5.299597        -0.638339        -1.555148
 H         0.894660         1.863164        -1.416624
 H         3.275532         2.096296         0.576854
