19
Iteration:   797
 C        -0.097832        -0.603712         0.214412
 C         1.302800        -0.034509        -0.116910
 C         2.487958        -0.946315        -0.650604
 C         3.465409         0.168762        -0.824286
 C         4.853998         0.257173        -0.846850
 O         2.629379         0.889916        -1.872496
 C         1.650946         1.253835        -0.985914
 C         2.638976         1.343827         0.104456
 O         1.941981         0.628176         1.161979
 H        -0.032124        -1.555844         0.671523
 H        -0.708121         0.066395         0.939867
 H        -0.713749        -0.934652        -0.635412
 H         2.745925        -1.707444         0.088149
 H         2.300229        -1.576105        -1.569835
 H         5.139938         1.297353        -1.320811
 H         5.282650         0.238122         0.114068
 H         5.317561        -0.582177        -1.449457
 H         0.841967         1.849106        -1.398005
 H         3.402450         2.182604         0.287252
