19
Iteration:  3853
 C        -0.055285        -0.622050         0.187849
 C         1.331241        -0.045129        -0.013003
 C         2.482311        -0.914563        -0.646426
 C         3.413323         0.261621        -0.865803
 C         4.959603         0.132744        -0.905420
 O         2.640955         0.954570        -1.944153
 C         1.595998         1.196262        -0.934368
 C         2.624033         1.355687         0.144355
 O         1.897193         0.620893         1.153851
 H        -0.065194        -1.491016         0.903838
 H        -0.875359         0.126669         0.589062
 H        -0.544069        -1.005273        -0.810851
 H         2.914584        -1.688111         0.010275
 H         2.224905        -1.473803        -1.545491
 H         5.412145         1.043683        -1.444146
 H         5.221265         0.277217         0.231888
 H         5.348736        -0.869729        -1.382184
 H         0.900681         2.091721        -1.196410
 H         2.982711         2.242955         0.769345
