19
Iteration:  4579
 C        -0.082271        -0.545815         0.089415
 C         1.322690        -0.040496         0.026160
 C         2.538811        -0.993685        -0.399441
 C         3.393715         0.215542        -0.892398
 C         4.911802         0.307001        -1.128218
 O         2.679943         0.882642        -1.863732
 C         1.600042         1.130336        -0.976502
 C         2.638476         1.290610         0.238179
 O         1.852349         0.668596         1.153016
 H        -0.453003        -1.006587         1.093282
 H        -0.640028         0.258291        -0.301652
 H        -0.108142        -1.362610        -0.610719
 H         2.786017        -1.596952         0.501214
 H         2.244931        -1.560558        -1.280310
 H         5.346825         1.220619        -0.712853
 H         5.495635        -0.534705        -0.634339
 H         5.230193         0.376583        -2.184652
 H         0.841391         1.708060        -1.583873
 H         3.202696         2.149561         0.694963
