19
Iteration:  1820charge 0 multiplicity 1
 C        -0.063260        -0.643130         0.325053
 C         1.265222        -0.040571        -0.066572
 C         2.468711        -0.899310        -0.557637
 C         3.408147         0.325340        -0.844875
 C         4.899342         0.219769        -0.937928
 O         2.652558         0.862196        -2.011384
 C         1.729512         1.237124        -1.007149
 C         2.647561         1.342278         0.166218
 O         1.855075         0.552913         1.102058
 H        -0.017338        -1.286129         1.201422
 H        -0.828530         0.033837         0.657748
 H        -0.525722        -1.116144        -0.642962
 H         2.804263        -1.516247         0.234401
 H         2.360420        -1.523783        -1.500695
 H         5.347762         1.248972        -0.626920
 H         5.158794        -0.420986        -0.074780
 H         5.449811        -0.122463        -1.793021
 H         1.212545         2.092434        -1.276443
 H         2.994986         2.301889         0.526034
