19
Iteration:  1826charge 0 multiplicity 1
 C        -0.119931        -0.649450         0.264977
 C         1.237492        -0.053799        -0.103388
 C         2.504711        -0.896567        -0.547326
 C         3.404275         0.317255        -0.870915
 C         4.900289         0.219050        -0.963712
 O         2.694081         0.829232        -1.969747
 C         1.696790         1.252144        -0.969935
 C         2.613978         1.375590         0.200786
 O         1.917889         0.571540         1.114081
 H         0.055244        -1.271674         1.177758
 H        -0.841065         0.131853         0.661093
 H        -0.532145        -1.204791        -0.531625
 H         2.724918        -1.614381         0.345294
 H         2.287234        -1.441642        -1.437577
 H         5.272129         1.179508        -0.720699
 H         5.246852        -0.495146        -0.151472
 H         5.523362        -0.062347        -1.854994
 H         0.927686         2.057432        -1.317666
 H         3.038277         2.369351         0.476789
