19
Iteration:  1691charge 0 multiplicity 1
 C        -0.050548        -0.578037         0.035126
 C         1.312122        -0.056104        -0.103232
 C         2.545556        -0.957446        -0.381247
 C         3.345611         0.285724        -0.775443
 C         4.886054         0.277234        -1.066495
 O         2.654709         0.734569        -1.865281
 C         1.586351         1.246612        -0.845914
 C         2.695763         1.351723         0.139643
 O         1.884183         0.670180         1.126821
 H        -0.072824        -1.355608         0.821215
 H        -0.780582         0.170713         0.244214
 H        -0.407732        -1.221138        -0.819086
 H         2.766085        -1.596435         0.408513
 H         2.447882        -1.487105        -1.471455
 H         5.226410         1.305365        -1.473924
 H         5.438874        -0.030028        -0.211356
 H         5.113491        -0.476997        -1.888932
 H         0.920456         2.017265        -1.254775
 H         3.217761         2.193692         0.527939
