19
Iteration:  2786charge 0 multiplicity 1
 C        -0.064121        -0.633660         0.225525
 C         1.272571        -0.071641        -0.059700
 C         2.468980        -0.951263        -0.474602
 C         3.381631         0.281957        -0.716086
 C         4.957025         0.187288        -0.998679
 O         2.662285         0.840378        -1.946855
 C         1.677130         1.222742        -1.006535
 C         2.673707         1.383272         0.134162
 O         1.807018         0.711031         1.094517
 H        -0.009661        -1.225502         1.151400
 H        -0.772636         0.135334         0.360263
 H        -0.379785        -1.353397        -0.555456
 H         2.871671        -1.488587         0.475951
 H         2.285832        -1.525165        -1.383029
 H         5.520809         1.137121        -1.247063
 H         5.544073        -0.480002        -0.371806
 H         5.122414        -0.331017        -1.986109
 H         0.903162         1.896507        -1.459323
 H         3.340272         2.225871         0.493934
