19
Iteration:   206charge 0 multiplicity 1
 C        -0.026828        -0.638459        -0.010817
 C         1.346366        -0.099353         0.018414
 C         2.493066        -0.923766        -0.400528
 C         3.411008         0.323850        -0.781938
 C         4.873057         0.234585        -1.158636
 O         2.643075         0.914567        -1.889537
 C         1.686499         1.178219        -0.914909
 C         2.642413         1.267889         0.219294
 O         1.785998         0.707127         1.191029
 H        -0.087686        -1.408414         0.803764
 H        -0.881680         0.060863         0.010866
 H         0.065250        -1.201431        -1.011919
 H         3.044099        -1.445008         0.478396
 H         2.459646        -1.674562        -1.209079
 H         5.140449         0.952134        -1.969213
 H         5.578951         0.438622        -0.331373
 H         4.978696        -0.881312        -1.423563
 H         0.916991         1.810687        -1.308776
 H         3.151029         2.126356         0.585117
