19
Iteration:   607
 C        -0.085349        -0.650788         0.171746
 C         1.256493        -0.052760        -0.062194
 C         2.505226        -0.901329        -0.510492
 C         3.352901         0.231592        -0.913592
 C         4.877072         0.283298        -0.924947
 O         2.711560         0.907906        -2.027928
 C         1.674660         1.243639        -0.915868
 C         2.661877         1.283360         0.207487
 O         1.890719         0.591494         1.150885
 H        -0.063631        -1.669225         0.708013
 H        -0.651153         0.101625         0.826476
 H        -0.678690        -0.909665        -0.736100
 H         2.872246        -1.644954         0.203566
 H         2.317133        -1.264211        -1.565085
 H         5.227969         1.253245        -1.260819
 H         5.141159         0.324926         0.193373
 H         5.396327        -0.617754        -1.291208
 H         0.918796         2.011235        -1.252614
 H         3.313304         2.013247         0.664276
