19
Iteration:   937charge 0 multiplicity 1
 C        -0.078523        -0.575106         0.163830
 C         1.271526        -0.066660        -0.082029
 C         2.459602        -0.946403        -0.539681
 C         3.428727         0.298909        -0.810328
 C         4.926677         0.231967        -0.948052
 O         2.634166         0.849478        -1.872607
 C         1.620311         1.188918        -0.954080
 C         2.688074         1.348264         0.110993
 O         1.897341         0.602816         1.107352
 H         0.161005        -1.400511         0.889006
 H        -0.612687         0.240452         0.796721
 H        -0.551913        -0.896794        -0.742802
 H         2.807634        -1.720148         0.200698
 H         2.408498        -1.482333        -1.518269
 H         5.279466         1.265959        -1.149025
 H         5.294545         0.040622         0.079289
 H         5.382066        -0.449403        -1.680169
 H         0.876686         1.877438        -1.385909
 H         2.995548         2.359990         0.554371
