19
Iteration:  4760charge 0 multiplicity 1
 C         0.000773        -0.634006         0.093923
 C         1.338155        -0.050176        -0.100191
 C         2.570559        -0.974101        -0.483528
 C         3.391785         0.302631        -0.801563
 C         4.880570         0.145328        -1.037595
 O         2.614514         0.877879        -1.940276
 C         1.693534         1.294386        -0.896111
 C         2.671754         1.335756         0.223072
 O         1.753481         0.654080         1.168949
 H         0.040621        -1.044802         1.123405
 H        -0.668204         0.172162         0.230745
 H        -0.339826        -1.309721        -0.702932
 H         2.982369        -1.722337         0.186652
 H         2.375988        -1.377786        -1.479677
 H         5.304107         1.139822        -1.073472
 H         5.339588        -0.421773        -0.197665
 H         4.965532        -0.372329        -2.055945
 H         0.907788         1.926466        -1.130109
 H         2.978899         2.296833         0.555844
