19
Iteration:   705
 C        -0.068372        -0.730237         0.022627
 C         1.240480        -0.019871        -0.072841
 C         2.546083        -0.833809        -0.391432
 C         3.417655         0.312983        -0.793402
 C         4.880858         0.159572        -1.155006
 O         2.665810         0.842736        -1.915512
 C         1.699141         1.300346        -0.883241
 C         2.697420         1.323149         0.274733
 O         1.817938         0.683334         1.176128
 H        -0.099235        -1.608011         0.713847
 H        -0.962149        -0.169438        -0.189503
 H         0.042783        -1.393825        -0.834909
 H         2.627880        -1.289937         0.636258
 H         2.380009        -1.597483        -1.194948
 H         5.354375         1.096785        -1.216164
 H         5.490143        -0.639148        -0.572497
 H         4.691054        -0.276818        -2.131719
 H         0.865393         2.032692        -1.000115
 H         3.254382         2.125150         0.698667
