19
Iteration:   424
 C        -0.032069        -0.713016         0.153362
 C         1.287497        -0.062227        -0.112545
 C         2.487496        -0.920143        -0.516734
 C         3.391481         0.276887        -0.866702
 C         4.893296         0.228461        -0.980724
 O         2.675536         0.890581        -1.939282
 C         1.672995         1.242935        -0.888813
 C         2.638956         1.360208         0.215837
 O         1.854629         0.661834         1.120073
 H         0.085454        -1.690532         0.660902
 H        -0.814200         0.075245         0.568162
 H        -0.599869        -0.929169        -0.707319
 H         2.861876        -1.763845         0.252881
 H         2.396185        -1.533080        -1.402232
 H         5.317470         1.060461        -1.530255
 H         5.307427         0.363156         0.070401
 H         5.283640        -0.736644        -1.362052
 H         0.839150         1.954866        -1.031875
 H         3.107874         2.241375         0.630678
