19
Iteration:   683charge 0 multiplicity 1
 C        -0.052272        -0.679388         0.027647
 C         1.393982        -0.051437        -0.081896
 C         2.587999        -0.965997        -0.363276
 C         3.373771         0.258192        -0.778658
 C         4.854839         0.104262        -1.119243
 O         2.616644         0.973368        -1.837723
 C         1.667050         1.296947        -0.937903
 C         2.638590         1.394455         0.171606
 O         1.819208         0.633101         1.149521
 H         0.000681        -1.399032         0.883868
 H        -0.790399         0.105834        -0.024088
 H        -0.351149        -1.355359        -0.775562
 H         2.991147        -1.561017         0.493764
 H         2.262282        -1.391920        -1.342975
 H         5.236339         1.087930        -0.976068
 H         5.403644        -0.552347        -0.345926
 H         5.136316        -0.256826        -2.108911
 H         0.787704         1.908431        -1.269366
 H         3.124227         2.266261         0.552732
