19
Iteration:  3946
 C        -0.105800        -0.613612        -0.017019
 C         1.312639        -0.089985        -0.011020
 C         2.555635        -0.910787        -0.411502
 C         3.334820         0.306822        -0.793916
 C         4.841798         0.221897        -1.037948
 O         2.628316         0.821716        -1.949234
 C         1.650362         1.230105        -0.984357
 C         2.664617         1.379376         0.251821
 O         1.966679         0.619079         1.189780
 H        -0.068540        -1.320585         0.868986
 H        -0.759353         0.182071         0.295022
 H        -0.406697        -0.999820        -0.986996
 H         2.904442        -1.460008         0.489155
 H         2.423884        -1.746047        -1.165993
 H         5.384911         1.200686        -0.784739
 H         5.210671        -0.639854        -0.449674
 H         4.931977         0.093952        -2.148767
 H         0.912306         1.927719        -1.333430
 H         3.242120         2.256265         0.508040
