19
Iteration:  4066charge 0 multiplicity 1
 C        -0.082312        -0.681536         0.005584
 C         1.298468        -0.071336        -0.008080
 C         2.512159        -0.950105        -0.429895
 C         3.359812         0.342181        -0.756778
 C         4.873377         0.114624        -1.083126
 O         2.675082         0.920926        -1.861146
 C         1.578078         1.205911        -0.879387
 C         2.610810         1.403150         0.143475
 O         1.956007         0.669005         1.141953
 H        -0.129754        -1.339320         0.939342
 H        -0.752586         0.135771         0.004892
 H        -0.010312        -1.079934        -1.018672
 H         2.891298        -1.482700         0.438282
 H         2.440313        -1.638888        -1.309893
 H         5.253467         0.915699        -1.832850
 H         5.498746         0.312576        -0.151151
 H         5.219032        -0.863061        -1.493075
 H         0.809318         1.821661        -1.435993
 H         3.218723         2.262901         0.562470
