19
Iteration:   294charge 0 multiplicity 1
 C        -0.099320        -0.706181         0.275335
 C         1.225535        -0.107049        -0.077200
 C         2.499596        -0.874012        -0.533494
 C         3.447654         0.312479        -0.825663
 C         4.986767         0.279005        -0.863998
 O         2.693291         0.890257        -2.016235
 C         1.571942         1.211147        -0.974519
 C         2.702247         1.373605         0.063538
 O         1.852216         0.598905         1.110977
 H         0.051933        -1.505386         1.036503
 H        -0.741129         0.085853         0.807204
 H        -0.631121        -1.142589        -0.552054
 H         2.553314        -1.671480         0.278828
 H         2.300803        -1.300221        -1.482154
 H         5.464229         1.057632        -0.258450
 H         5.242706        -0.739897        -0.402153
 H         5.435414         0.267838        -1.875367
 H         0.727175         1.833948        -1.163855
 H         3.200485         2.255868         0.407923
