19
Iteration:  1186charge 0 multiplicity 1
 C        -0.062528        -0.668163         0.077618
 C         1.302080        -0.082110        -0.035761
 C         2.471860        -0.933541        -0.344223
 C         3.449884         0.309095        -0.772356
 C         4.886932         0.157108        -1.083618
 O         2.648959         0.918273        -1.903042
 C         1.604480         1.176389        -0.996315
 C         2.666926         1.399350         0.117358
 O         1.879876         0.656636         1.163770
 H        -0.019740        -1.497152         0.790400
 H        -0.778979         0.134502         0.485285
 H        -0.407657        -0.846938        -0.925156
 H         2.840077        -1.547752         0.521541
 H         2.319213        -1.576997        -1.251958
 H         5.151829         1.024986        -1.585913
 H         5.589250         0.097482        -0.188227
 H         5.195786        -0.714147        -1.576384
 H         0.964892         1.945259        -1.324425
 H         3.189985         2.320638         0.423573
