19
Iteration:  3131
 C        -0.030471        -0.706047         0.299897
 C         1.317817        -0.024338        -0.105583
 C         2.502723        -0.899769        -0.472503
 C         3.458327         0.347721        -0.783056
 C         4.898134         0.089069        -0.959997
 O         2.654617         0.899341        -1.984123
 C         1.659073         1.305867        -1.016441
 C         2.655464         1.364928         0.168453
 O         1.737296         0.612257         1.050192
 H         0.205436        -1.187378         1.323448
 H        -0.738223         0.042201         0.491535
 H        -0.353937        -1.374695        -0.491882
 H         2.858212        -1.489186         0.441198
 H         2.355812        -1.415680        -1.418176
 H         5.528156         0.986316        -0.815078
 H         5.310962        -0.759673        -0.286648
 H         4.990101        -0.291974        -2.013185
 H         1.058103         2.145063        -1.201479
 H         3.318123         2.268241         0.426175
