19
Iteration:   252
 C         0.045964        -0.697932         0.117131
 C         1.331553        -0.016728        -0.091289
 C         2.503411        -0.906273        -0.397985
 C         3.374760         0.386260        -0.783436
 C         4.861263         0.205516        -0.991730
 O         2.688762         0.863597        -1.994296
 C         1.572375         1.214631        -0.944823
 C         2.636758         1.345012         0.180190
 O         1.839401         0.605645         1.105284
 H         0.048265        -1.532074         0.861101
 H        -0.692345         0.112394         0.636131
 H        -0.423364        -1.039863        -0.789830
 H         2.926751        -1.640920         0.468459
 H         2.289662        -1.452758        -1.285715
 H         5.431260         1.125999        -0.815528
 H         5.365953        -0.572552        -0.220683
 H         4.960786        -0.210841        -1.988062
 H         0.899186         1.992569        -1.245672
 H         3.172314         2.181380         0.631644
