19
Iteration:  4014charge 0 multiplicity 1
 C        -0.019135        -0.740420         0.263351
 C         1.275743        -0.053970        -0.072619
 C         2.414519        -0.905449        -0.529667
 C         3.377883         0.309139        -0.750811
 C         4.869564         0.183704        -0.911763
 O         2.714339         0.928244        -1.924506
 C         1.666046         1.316541        -1.034678
 C         2.642998         1.337033         0.066024
 O         1.887901         0.584403         1.084604
 H         0.220825        -1.496497         1.099639
 H        -0.604515         0.091768         0.630910
 H        -0.457931        -0.984514        -0.752534
 H         2.819838        -1.611184         0.304815
 H         2.085070        -1.426287        -1.547433
 H         5.358166         1.121284        -1.280761
 H         5.513272        -0.032955         0.054634
 H         5.061198        -0.608295        -1.645581
 H         0.846770         2.081373        -1.376298
 H         3.133240         2.139530         0.678674
