19
Iteration:  3534charge 0 multiplicity 1
 C        -0.097572        -0.569506         0.154993
 C         1.293650        -0.114153        -0.058662
 C         2.594803        -0.984954        -0.557614
 C         3.393677         0.244759        -0.866473
 C         4.843599         0.212352        -1.010884
 O         2.671537         0.927532        -1.925011
 C         1.657786         1.272900        -0.884004
 C         2.627542         1.327731         0.234657
 O         1.860748         0.633815         1.154181
 H        -0.168622        -1.507016         0.841332
 H        -0.850731         0.193485         0.415858
 H        -0.273920        -1.015035        -0.874999
 H         2.853245        -1.696533         0.239175
 H         2.333940        -1.432892        -1.550216
 H         5.392772         1.206852        -1.035372
 H         5.389736        -0.490070        -0.175268
 H         5.346095        -0.267394        -1.938697
 H         0.870161         1.945542        -1.184115
 H         3.170481         2.248800         0.544374
