19
Iteration:  2453
 C        -0.210975        -0.575344         0.191474
 C         1.279142        -0.042078        -0.081294
 C         2.543443        -0.976188        -0.474839
 C         3.405122         0.262667        -0.830636
 C         4.930664         0.233604        -0.970496
 O         2.638951         0.881420        -1.943847
 C         1.641138         1.211983        -0.928848
 C         2.667703         1.330334         0.161661
 O         1.971815         0.608534         1.077361
 H        -0.282857        -1.526163         0.564934
 H        -0.754755         0.003371         0.968826
 H        -0.649483        -0.585942        -0.781820
 H         2.759903        -1.538994         0.376560
 H         2.302136        -1.670968        -1.363594
 H         5.413535         1.208492        -1.098383
 H         5.259065        -0.129616        -0.001328
 H         5.360527        -0.349914        -1.862559
 H         0.927920         2.062075        -1.227076
 H         3.163598         2.181153         0.569415
