19
Iteration:  2500charge 0 multiplicity 1
 C        -0.107908        -0.678321         0.282478
 C         1.256263        -0.069902        -0.038059
 C         2.448921        -0.887085        -0.635709
 C         3.390296         0.290250        -0.852022
 C         4.942174         0.107688        -0.893658
 O         2.693679         0.884991        -1.969113
 C         1.638908         1.304120        -0.953456
 C         2.709516         1.405144         0.122786
 O         1.869642         0.617436         1.119853
 H         0.073097        -1.395345         1.138872
 H        -0.730851         0.036098         0.812724
 H        -0.547286        -1.154574        -0.578811
 H         2.810670        -1.727506        -0.019913
 H         2.294745        -1.267079        -1.603990
 H         5.385760         1.095408        -1.090117
 H         5.284694        -0.183831         0.169652
 H         5.383310        -0.464553        -1.692775
 H         0.833508         1.859509        -1.350929
 H         3.203715         2.336639         0.499861
