19
Iteration:  4270
 C        -0.087212        -0.570496         0.040725
 C         1.339929        -0.041240        -0.083492
 C         2.533293        -0.914789        -0.349794
 C         3.351368         0.285241        -0.758900
 C         4.894952         0.255620        -1.009343
 O         2.637953         0.865384        -1.978839
 C         1.618110         1.162078        -0.968274
 C         2.648931         1.341983         0.194879
 O         1.975147         0.569934         1.176604
 H        -0.272572        -1.420021         0.649568
 H        -0.941830         0.084729         0.275923
 H        -0.337483        -0.932532        -0.982942
 H         2.886544        -1.350195         0.600345
 H         2.422617        -1.660671        -1.184681
 H         4.814803         1.088502        -1.794058
 H         5.499389         0.481364        -0.198523
 H         5.108429        -0.638209        -1.576236
 H         0.641676         1.695867        -1.322050
 H         3.126957         2.297070         0.672281
